"Pyruvic_Acid_Methyl_Ester"
  Mrv0541 05061306032D          

  8  7  0  0  0  0            999 V2000
   -4.2263   -0.2371    0.0000 C   0  0  0  0  0  0  0  0  0  0  0  0
   -3.5118    0.1754    0.0000 C   0  0  0  0  0  0  0  0  0  0  0  0
   -3.5118    1.0004    0.0000 O   0  0  0  0  0  0  0  0  0  0  0  0
   -2.7974   -1.0621    0.0000 O   0  0  0  0  0  0  0  0  0  0  0  0
   -2.7974   -0.2371    0.0000 C   0  0  0  0  0  0  0  0  0  0  0  0
   -2.0829    0.1754    0.0000 O   0  0  0  0  0  0  0  0  0  0  0  0
   -1.3684   -0.2371    0.0000 C   0  0  0  0  0  0  0  0  0  0  0  0
   -0.6540    0.1754    0.0000 C   0  0  0  0  0  0  0  0  0  0  0  0
  1  2  2  0  0  0  0
  2  3  1  0  0  0  0
  2  5  1  0  0  0  0
  4  5  2  0  0  0  0
  5  6  1  0  0  0  0
  6  7  1  0  0  0  0
  7  8  1  0  0  0  0
M  END
> <DATABASE_ID>
FDB008294

> <DATABASE_NAME>
foodb

> <SMILES>
CCOC(=O)C(O)=C

> <INCHI_IDENTIFIER>
InChI=1S/C5H8O3/c1-3-8-5(7)4(2)6/h6H,2-3H2,1H3

> <INCHI_KEY>
PSYUBHDPOIZRST-UHFFFAOYSA-N

> <FORMULA>
C5H8O3

> <MOLECULAR_WEIGHT>
116.1152

> <EXACT_MASS>
116.047344122

> <JCHEM_ACCEPTOR_COUNT>
2

> <JCHEM_AVERAGE_POLARIZABILITY>
11.292980820112788

> <JCHEM_BIOAVAILABILITY>
1

> <JCHEM_DONOR_COUNT>
1

> <JCHEM_FORMAL_CHARGE>
0

> <JCHEM_GHOSE_FILTER>
0

> <JCHEM_IUPAC>
ethyl 2-hydroxyprop-2-enoate

> <ALOGPS_LOGP>
0.40

> <JCHEM_LOGP>
0.7503249553333331

> <ALOGPS_LOGS>
-0.13

> <JCHEM_MDDR_LIKE_RULE>
0

> <JCHEM_NUMBER_OF_RINGS>
0

> <JCHEM_PHYSIOLOGICAL_CHARGE>
0

> <JCHEM_PKA_STRONGEST_ACIDIC>
10.341005095151475

> <JCHEM_PKA_STRONGEST_BASIC>
-2.5862443713807455

> <JCHEM_POLAR_SURFACE_AREA>
46.53

> <JCHEM_REFRACTIVITY>
28.776500000000002

> <JCHEM_ROTATABLE_BOND_COUNT>
3

> <JCHEM_RULE_OF_FIVE>
1

> <ALOGPS_SOLUBILITY>
8.68e+01 g/l

> <JCHEM_TRADITIONAL_IUPAC>
ethyl 2-hydroxyprop-2-enoate

> <JCHEM_VEBER_RULE>
0

$$$$
"tween 40"
  Mrv0541 02241221172D          

 36 36  0  0  0  0            999 V2000
    5.3963   -0.6561    0.0000 O   0  0  0  0  0  0  0  0  0  0  0  0
    5.3963   -1.4811    0.0000 C   0  0  0  0  0  0  0  0  0  0  0  0
    4.6819   -1.8936    0.0000 O   0  0  0  0  0  0  0  0  0  0  0  0
    3.9674   -1.4811    0.0000 C   0  0  0  0  0  0  0  0  0  0  0  0
    3.2529   -1.8936    0.0000 C   0  0  0  0  0  0  0  0  0  0  0  0
    2.5384   -1.4811    0.0000 O   0  0  0  0  0  0  0  0  0  0  0  0
    1.8240   -1.8936    0.0000 C   0  0  0  0  0  0  0  0  0  0  0  0
    1.1095   -1.4811    0.0000 C   0  0  0  0  0  0  0  0  0  0  0  0
    0.3950   -1.8936    0.0000 O   0  0  0  0  0  0  0  0  0  0  0  0
   -0.3194   -1.4811    0.0000 C   0  0  0  0  0  0  0  0  0  0  0  0
   -1.0339   -1.8936    0.0000 C   0  0  0  0  0  0  0  0  0  0  0  0
   -1.7484   -1.4811    0.0000 O   0  0  0  0  0  0  0  0  0  0  0  0
    1.1095   -0.6561    0.0000 C   0  0  0  0  0  0  0  0  0  0  0  0
    0.4421   -0.1712    0.0000 O   0  0  0  0  0  0  0  0  0  0  0  0
    0.6970    0.6134    0.0000 C   0  0  0  0  0  0  0  0  0  0  0  0
    1.5220    0.6134    0.0000 C   0  0  0  0  0  0  0  0  0  0  0  0
    2.0069    1.2809    0.0000 O   0  0  0  0  0  0  0  0  0  0  0  0
    2.8274    1.1946    0.0000 C   0  0  0  0  0  0  0  0  0  0  0  0
    3.3123    1.8621    0.0000 C   0  0  0  0  0  0  0  0  0  0  0  0
    4.1328    1.7758    0.0000 O   0  0  0  0  0  0  0  0  0  0  0  0
    1.7769   -0.1712    0.0000 C   0  0  0  0  0  0  0  0  0  0  0  0
    2.5616   -0.4261    0.0000 O   0  0  0  0  0  0  0  0  0  0  0  0
    2.7331   -1.2331    0.0000 C   0  0  0  0  0  0  0  0  0  0  0  0
    3.5177   -1.4881    0.0000 C   0  0  0  0  0  0  0  0  0  0  0  0
    4.1308   -0.9360    0.0000 O   0  0  0  0  0  0  0  0  0  0  0  0
    6.1108   -1.8936    0.0000 C   0  0  0  0  0  0  0  0  0  0  0  0
    6.8253   -1.4811    0.0000 C   0  0  0  0  0  0  0  0  0  0  0  0
    7.5397   -1.8936    0.0000 C   0  0  0  0  0  0  0  0  0  0  0  0
    8.2542   -1.4811    0.0000 C   0  0  0  0  0  0  0  0  0  0  0  0
    8.9687   -1.8936    0.0000 C   0  0  0  0  0  0  0  0  0  0  0  0
    9.6831   -1.4811    0.0000 C   0  0  0  0  0  0  0  0  0  0  0  0
   10.3976   -1.8936    0.0000 C   0  0  0  0  0  0  0  0  0  0  0  0
   11.1121   -1.4811    0.0000 C   0  0  0  0  0  0  0  0  0  0  0  0
   11.8266   -1.8936    0.0000 C   0  0  0  0  0  0  0  0  0  0  0  0
   12.5410   -1.4811    0.0000 C   0  0  0  0  0  0  0  0  0  0  0  0
   13.2555   -1.8936    0.0000 C   0  0  0  0  0  0  0  0  0  0  0  0
  1  2  2  0  0  0  0
  2  3  1  0  0  0  0
  3  4  1  0  0  0  0
  4  5  1  0  0  0  0
  5  6  1  0  0  0  0
  6  7  1  0  0  0  0
  7  8  1  0  0  0  0
  8  9  1  0  0  0  0
  9 10  1  0  0  0  0
 10 11  1  0  0  0  0
 11 12  1  0  0  0  0
  8 13  1  0  0  0  0
 13 14  1  0  0  0  0
 14 15  1  0  0  0  0
 15 16  1  0  0  0  0
 16 17  1  0  0  0  0
 17 18  1  0  0  0  0
 18 19  1  0  0  0  0
 19 20  1  0  0  0  0
 16 21  1  0  0  0  0
 13 21  1  0  0  0  0
 21 22  1  0  0  0  0
 22 23  1  0  0  0  0
 23 24  1  0  0  0  0
 24 25  1  0  0  0  0
  2 26  1  0  0  0  0
 26 27  1  0  0  0  0
 27 28  1  0  0  0  0
 28 29  1  0  0  0  0
 29 30  1  0  0  0  0
 30 31  1  0  0  0  0
 31 32  1  0  0  0  0
 32 33  1  0  0  0  0
 33 34  1  0  0  0  0
 34 35  1  0  0  0  0
 35 36  1  0  0  0  0
M  END
> <DATABASE_ID>
FDB016181

> <DATABASE_NAME>
foodb

> <SMILES>
CCCCCCCCCCCC(=O)OCCOCC(OCCO)C1OCC(OCCO)C1OCCO

> <INCHI_IDENTIFIER>
InChI=1S/C26H50O10/c1-2-3-4-5-6-7-8-9-10-11-24(30)34-19-18-31-20-22(32-15-12-27)26-25(35-17-14-29)23(21-36-26)33-16-13-28/h22-23,25-29H,2-21H2,1H3

> <INCHI_KEY>
HMFKFHLTUCJZJO-UHFFFAOYSA-N

> <FORMULA>
C26H50O10

> <MOLECULAR_WEIGHT>
522.6692

> <EXACT_MASS>
522.34039782

> <JCHEM_ACCEPTOR_COUNT>
9

> <JCHEM_AVERAGE_POLARIZABILITY>
60.33383710205124

> <JCHEM_BIOAVAILABILITY>
0

> <JCHEM_DONOR_COUNT>
3

> <JCHEM_FORMAL_CHARGE>
0

> <JCHEM_GHOSE_FILTER>
0

> <JCHEM_IUPAC>
2-{2-[3,4-bis(2-hydroxyethoxy)oxolan-2-yl]-2-(2-hydroxyethoxy)ethoxy}ethyl dodecanoate

> <ALOGPS_LOGP>
2.75

> <JCHEM_LOGP>
2.3865619326666665

> <ALOGPS_LOGS>
-4.46

> <JCHEM_MDDR_LIKE_RULE>
0

> <JCHEM_NUMBER_OF_RINGS>
1

> <JCHEM_PHYSIOLOGICAL_CHARGE>
0

> <JCHEM_PKA>
15.120233757797251

> <JCHEM_PKA_STRONGEST_ACIDIC>
14.643112502888535

> <JCHEM_PKA_STRONGEST_BASIC>
-2.7462062693263514

> <JCHEM_POLAR_SURFACE_AREA>
133.14000000000001

> <JCHEM_REFRACTIVITY>
134.25490000000002

> <JCHEM_ROTATABLE_BOND_COUNT>
26

> <JCHEM_RULE_OF_FIVE>
0

> <ALOGPS_SOLUBILITY>
1.82e-02 g/l

> <JCHEM_TRADITIONAL_IUPAC>
peg-80 sorbitan laurate

> <JCHEM_VEBER_RULE>
0

$$$$
"tween80_CID_86289060"
  -OEChem-03271622552D

102102  0     1  0  0  0  0  0999 V2000
    7.5961   -4.1550    0.0000 O   0  0  0  0  0  0  0  0  0  0  0  0
    5.0270   -3.8460    0.0000 O   0  0  0  0  0  0  0  0  0  0  0  0
    5.6993   -5.9151    0.0000 O   0  0  0  0  0  0  0  0  0  0  0  0
    5.9210   -2.0672    0.0000 O   0  0  0  0  0  0  0  0  0  0  0  0
    7.6531   -1.0672    0.0000 O   0  0  0  0  0  0  0  0  0  0  0  0
    2.5896   -4.8752    0.0000 O   0  0  0  0  0  0  0  0  0  0  0  0
    5.9250   -8.5512    0.0000 O   0  0  0  0  0  0  0  0  0  0  0  0
    5.0550    0.4328    0.0000 O   0  0  0  0  0  0  0  0  0  0  0  0
    9.3852    0.9328    0.0000 O   0  0  0  0  0  0  0  0  0  0  0  0
    8.5191    2.4328    0.0000 O   0  0  0  0  0  0  0  0  0  0  0  0
    6.7871   -3.5672    0.0000 C   0  0  1  0  0  0  0  0  0  0  0  0
    5.9781   -4.1550    0.0000 C   0  0  1  0  0  0  0  0  0  0  0  0
    6.2871   -5.1061    0.0000 C   0  0  3  0  0  0  0  0  0  0  0  0
    6.7871   -2.5672    0.0000 C   0  0  3  0  0  0  0  0  0  0  0  0
    7.2871   -5.1061    0.0000 C   0  0  0  0  0  0  0  0  0  0  0  0
    7.6531   -2.0672    0.0000 C   0  0  0  0  0  0  0  0  0  0  0  0
    4.2839   -4.5151    0.0000 C   0  0  0  0  0  0  0  0  0  0  0  0
    6.1060   -6.8286    0.0000 C   0  0  0  0  0  0  0  0  0  0  0  0
    5.9210   -1.0672    0.0000 C   0  0  0  0  0  0  0  0  0  0  0  0
    3.3328   -4.2061    0.0000 C   0  0  0  0  0  0  0  0  0  0  0  0
    5.5182   -7.6376    0.0000 C   0  0  0  0  0  0  0  0  0  0  0  0
    8.5191   -0.5672    0.0000 C   0  0  0  0  0  0  0  0  0  0  0  0
    5.0550   -0.5672    0.0000 C   0  0  0  0  0  0  0  0  0  0  0  0
    8.5191    0.4328    0.0000 C   0  0  0  0  0  0  0  0  0  0  0  0
   11.1172    4.9328    0.0000 C   0  0  0  0  0  0  0  0  0  0  0  0
   11.1172    3.9328    0.0000 C   0  0  0  0  0  0  0  0  0  0  0  0
   11.9832    5.4328    0.0000 C   0  0  0  0  0  0  0  0  0  0  0  0
   10.2512    3.4328    0.0000 C   0  0  0  0  0  0  0  0  0  0  0  0
   17.1794    8.4328    0.0000 C   0  0  0  0  0  0  0  0  0  0  0  0
   16.3134    7.9328    0.0000 C   0  0  0  0  0  0  0  0  0  0  0  0
   11.9832    6.4328    0.0000 C   0  0  0  0  0  0  0  0  0  0  0  0
   10.2512    2.4328    0.0000 C   0  0  0  0  0  0  0  0  0  0  0  0
   18.0454    7.9328    0.0000 C   0  0  0  0  0  0  0  0  0  0  0  0
   15.4473    8.4328    0.0000 C   0  0  0  0  0  0  0  0  0  0  0  0
   12.8493    6.9328    0.0000 C   0  0  0  0  0  0  0  0  0  0  0  0
    9.3852    1.9328    0.0000 C   0  0  0  0  0  0  0  0  0  0  0  0
   18.9114    8.4328    0.0000 C   0  0  0  0  0  0  0  0  0  0  0  0
   14.5813    7.9328    0.0000 C   0  0  0  0  0  0  0  0  0  0  0  0
   12.8493    7.9328    0.0000 C   0  0  0  0  0  0  0  0  0  0  0  0
   19.7775    7.9328    0.0000 C   0  0  0  0  0  0  0  0  0  0  0  0
   13.7153    8.4328    0.0000 C   0  0  0  0  0  0  0  0  0  0  0  0
   20.6435    8.4328    0.0000 C   0  0  0  0  0  0  0  0  0  0  0  0
    7.3395   -3.2858    0.0000 H   0  0  0  0  0  0  0  0  0  0  0  0
    5.5396   -4.5934    0.0000 H   0  0  0  0  0  0  0  0  0  0  0  0
    6.5686   -5.6585    0.0000 H   0  0  0  0  0  0  0  0  0  0  0  0
    6.7871   -1.9472    0.0000 H   0  0  0  0  0  0  0  0  0  0  0  0
    7.2223   -5.7227    0.0000 H   0  0  0  0  0  0  0  0  0  0  0  0
    7.8935   -5.2350    0.0000 H   0  0  0  0  0  0  0  0  0  0  0  0
    7.8652   -2.6498    0.0000 H   0  0  0  0  0  0  0  0  0  0  0  0
    8.2637   -1.9596    0.0000 H   0  0  0  0  0  0  0  0  0  0  0  0
    3.9928   -5.0626    0.0000 H   0  0  0  0  0  0  0  0  0  0  0  0
    4.7724   -4.8968    0.0000 H   0  0  0  0  0  0  0  0  0  0  0  0
    6.5367   -7.2746    0.0000 H   0  0  0  0  0  0  0  0  0  0  0  0
    6.6200   -6.4819    0.0000 H   0  0  0  0  0  0  0  0  0  0  0  0
    6.5316   -1.1749    0.0000 H   0  0  0  0  0  0  0  0  0  0  0  0
    6.1331   -0.4846    0.0000 H   0  0  0  0  0  0  0  0  0  0  0  0
    3.6239   -3.6587    0.0000 H   0  0  0  0  0  0  0  0  0  0  0  0
    2.8442   -3.8244    0.0000 H   0  0  0  0  0  0  0  0  0  0  0  0
    5.0876   -7.1916    0.0000 H   0  0  0  0  0  0  0  0  0  0  0  0
    5.0042   -7.9843    0.0000 H   0  0  0  0  0  0  0  0  0  0  0  0
    8.7312   -1.1498    0.0000 H   0  0  0  0  0  0  0  0  0  0  0  0
    9.1297   -0.4596    0.0000 H   0  0  0  0  0  0  0  0  0  0  0  0
    4.4444   -0.4596    0.0000 H   0  0  0  0  0  0  0  0  0  0  0  0
    4.8430   -1.1498    0.0000 H   0  0  0  0  0  0  0  0  0  0  0  0
    8.3071    1.0154    0.0000 H   0  0  0  0  0  0  0  0  0  0  0  0
    7.9086    0.3251    0.0000 H   0  0  0  0  0  0  0  0  0  0  0  0
    2.0000   -4.6836    0.0000 H   0  0  0  0  0  0  0  0  0  0  0  0
    5.5606   -9.0528    0.0000 H   0  0  0  0  0  0  0  0  0  0  0  0
   10.9051    5.5154    0.0000 H   0  0  0  0  0  0  0  0  0  0  0  0
   10.5066    4.8251    0.0000 H   0  0  0  0  0  0  0  0  0  0  0  0
    4.5181    0.7428    0.0000 H   0  0  0  0  0  0  0  0  0  0  0  0
   11.3293    3.3502    0.0000 H   0  0  0  0  0  0  0  0  0  0  0  0
   11.7278    4.0404    0.0000 H   0  0  0  0  0  0  0  0  0  0  0  0
   12.1953    4.8502    0.0000 H   0  0  0  0  0  0  0  0  0  0  0  0
   12.5938    5.5404    0.0000 H   0  0  0  0  0  0  0  0  0  0  0  0
   10.0391    4.0154    0.0000 H   0  0  0  0  0  0  0  0  0  0  0  0
    9.6406    3.3251    0.0000 H   0  0  0  0  0  0  0  0  0  0  0  0
   17.5779    8.9077    0.0000 H   0  0  0  0  0  0  0  0  0  0  0  0
   16.7809    8.9077    0.0000 H   0  0  0  0  0  0  0  0  0  0  0  0
   15.9148    7.4578    0.0000 H   0  0  0  0  0  0  0  0  0  0  0  0
   16.7119    7.4578    0.0000 H   0  0  0  0  0  0  0  0  0  0  0  0
   11.7712    7.0154    0.0000 H   0  0  0  0  0  0  0  0  0  0  0  0
   11.3726    6.3251    0.0000 H   0  0  0  0  0  0  0  0  0  0  0  0
   17.6469    7.4578    0.0000 H   0  0  0  0  0  0  0  0  0  0  0  0
   18.4439    7.4578    0.0000 H   0  0  0  0  0  0  0  0  0  0  0  0
   10.4632    1.8502    0.0000 H   0  0  0  0  0  0  0  0  0  0  0  0
   10.8618    2.5404    0.0000 H   0  0  0  0  0  0  0  0  0  0  0  0
   15.8459    8.9077    0.0000 H   0  0  0  0  0  0  0  0  0  0  0  0
   15.0488    8.9077    0.0000 H   0  0  0  0  0  0  0  0  0  0  0  0
   13.0613    6.3502    0.0000 H   0  0  0  0  0  0  0  0  0  0  0  0
   13.4598    7.0404    0.0000 H   0  0  0  0  0  0  0  0  0  0  0  0
   19.3100    8.9077    0.0000 H   0  0  0  0  0  0  0  0  0  0  0  0
   18.5129    8.9077    0.0000 H   0  0  0  0  0  0  0  0  0  0  0  0
   14.1828    7.4578    0.0000 H   0  0  0  0  0  0  0  0  0  0  0  0
   14.9798    7.4578    0.0000 H   0  0  0  0  0  0  0  0  0  0  0  0
   19.3789    7.4578    0.0000 H   0  0  0  0  0  0  0  0  0  0  0  0
   20.1760    7.4578    0.0000 H   0  0  0  0  0  0  0  0  0  0  0  0
   12.3123    8.2428    0.0000 H   0  0  0  0  0  0  0  0  0  0  0  0
   13.7153    9.0528    0.0000 H   0  0  0  0  0  0  0  0  0  0  0  0
   20.9535    7.8958    0.0000 H   0  0  0  0  0  0  0  0  0  0  0  0
   21.1804    8.7428    0.0000 H   0  0  0  0  0  0  0  0  0  0  0  0
   20.3335    8.9697    0.0000 H   0  0  0  0  0  0  0  0  0  0  0  0
  1 11  1  0  0  0  0
  1 15  1  0  0  0  0
 12  2  1  1  0  0  0
  2 17  1  0  0  0  0
  3 13  1  0  0  0  0
  3 18  1  0  0  0  0
  4 14  1  0  0  0  0
  4 19  1  0  0  0  0
  5 16  1  0  0  0  0
  5 22  1  0  0  0  0
  6 20  1  0  0  0  0
  6 67  1  0  0  0  0
  7 21  1  0  0  0  0
  7 68  1  0  0  0  0
  8 23  1  0  0  0  0
  8 71  1  0  0  0  0
  9 24  1  0  0  0  0
  9 36  1  0  0  0  0
 10 36  2  0  0  0  0
 11 12  1  0  0  0  0
 11 14  1  1  0  0  0
 11 43  1  0  0  0  0
 12 13  1  0  0  0  0
 12 44  1  0  0  0  0
 13 15  1  0  0  0  0
 13 45  1  0  0  0  0
 14 16  1  0  0  0  0
 14 46  1  0  0  0  0
 15 47  1  0  0  0  0
 15 48  1  0  0  0  0
 16 49  1  0  0  0  0
 16 50  1  0  0  0  0
 17 20  1  0  0  0  0
 17 51  1  0  0  0  0
 17 52  1  0  0  0  0
 18 21  1  0  0  0  0
 18 53  1  0  0  0  0
 18 54  1  0  0  0  0
 19 23  1  0  0  0  0
 19 55  1  0  0  0  0
 19 56  1  0  0  0  0
 20 57  1  0  0  0  0
 20 58  1  0  0  0  0
 21 59  1  0  0  0  0
 21 60  1  0  0  0  0
 22 24  1  0  0  0  0
 22 61  1  0  0  0  0
 22 62  1  0  0  0  0
 23 63  1  0  0  0  0
 23 64  1  0  0  0  0
 24 65  1  0  0  0  0
 24 66  1  0  0  0  0
 25 26  1  0  0  0  0
 25 27  1  0  0  0  0
 25 69  1  0  0  0  0
 25 70  1  0  0  0  0
 26 28  1  0  0  0  0
 26 72  1  0  0  0  0
 26 73  1  0  0  0  0
 27 31  1  0  0  0  0
 27 74  1  0  0  0  0
 27 75  1  0  0  0  0
 28 32  1  0  0  0  0
 28 76  1  0  0  0  0
 28 77  1  0  0  0  0
 29 30  1  0  0  0  0
 29 33  1  0  0  0  0
 29 78  1  0  0  0  0
 29 79  1  0  0  0  0
 30 34  1  0  0  0  0
 30 80  1  0  0  0  0
 30 81  1  0  0  0  0
 31 35  1  0  0  0  0
 31 82  1  0  0  0  0
 31 83  1  0  0  0  0
 32 36  1  0  0  0  0
 32 86  1  0  0  0  0
 32 87  1  0  0  0  0
 33 37  1  0  0  0  0
 33 84  1  0  0  0  0
 33 85  1  0  0  0  0
 34 38  1  0  0  0  0
 34 88  1  0  0  0  0
 34 89  1  0  0  0  0
 35 39  1  0  0  0  0
 35 90  1  0  0  0  0
 35 91  1  0  0  0  0
 37 40  1  0  0  0  0
 37 92  1  0  0  0  0
 37 93  1  0  0  0  0
 38 41  1  0  0  0  0
 38 94  1  0  0  0  0
 38 95  1  0  0  0  0
 39 41  2  0  0  0  0
 39 98  1  0  0  0  0
 40 42  1  0  0  0  0
 40 96  1  0  0  0  0
 40 97  1  0  0  0  0
 41 99  1  0  0  0  0
 42100  1  0  0  0  0
 42101  1  0  0  0  0
 42102  1  0  0  0  0
M  END
> <PUBCHEM_COMPOUND_CID>
86289060

> <PUBCHEM_COMPOUND_CANONICALIZED>
1

> <PUBCHEM_CACTVS_COMPLEXITY>
632

> <PUBCHEM_CACTVS_HBOND_ACCEPTOR>
10

> <PUBCHEM_CACTVS_HBOND_DONOR>
3

> <PUBCHEM_CACTVS_ROTATABLE_BOND>
31

> <PUBCHEM_CACTVS_SUBSKEYS>
AAADcfB8PAAAAAAAAAAAAAAAAAAAASAAAAAAAAAAAAAAAAAAAAAAGgAACAAACBSggAICCAAABgCIACDSCAAAAAAgAAAICAEAAAgBEBIAAQACAAAFgAALAAPI6KyAAAAAAAAAAAAAAAAAAAAAAAAAAAAAAA==

> <PUBCHEM_IUPAC_OPENEYE_NAME>
2-[2-[(2R,3R)-3,4-bis(2-hydroxyethoxy)tetrahydrofuran-2-yl]-2-(2-hydroxyethoxy)ethoxy]ethyl (Z)-octadec-9-enoate

> <PUBCHEM_IUPAC_CAS_NAME>
(Z)-9-octadecenoic acid 2-[2-[(2R,3R)-3,4-bis(2-hydroxyethoxy)-2-oxolanyl]-2-(2-hydroxyethoxy)ethoxy]ethyl ester

> <PUBCHEM_IUPAC_NAME>
2-[2-[(2R,3R)-3,4-bis(2-hydroxyethoxy)oxolan-2-yl]-2-(2-hydroxyethoxy)ethoxy]ethyl (Z)-octadec-9-enoate

> <PUBCHEM_IUPAC_SYSTEMATIC_NAME>
2-[2-[(2R,3R)-3,4-bis(2-hydroxyethyloxy)oxolan-2-yl]-2-(2-hydroxyethyloxy)ethoxy]ethyl (Z)-octadec-9-enoate

> <PUBCHEM_IUPAC_TRADITIONAL_NAME>
(Z)-octadec-9-enoic acid 2-[2-[(2R,3R)-3,4-bis(2-hydroxyethoxy)tetrahydrofuran-2-yl]-2-(2-hydroxyethoxy)ethoxy]ethyl ester

> <PUBCHEM_IUPAC_INCHI>
InChI=1S/C32H60O10/c1-2-3-4-5-6-7-8-9-10-11-12-13-14-15-16-17-30(36)40-25-24-37-26-28(38-21-18-33)32-31(41-23-20-35)29(27-42-32)39-22-19-34/h9-10,28-29,31-35H,2-8,11-27H2,1H3/b10-9-/t28?,29?,31-,32-/m1/s1

> <PUBCHEM_IUPAC_INCHIKEY>
HDTIFOGXOGLRCB-VVGYGEMISA-N

> <PUBCHEM_XLOGP3_AA>
4.8

> <PUBCHEM_EXACT_MASS>
604.418648

> <PUBCHEM_MOLECULAR_FORMULA>
C32H60O10

> <PUBCHEM_MOLECULAR_WEIGHT>
604.8128

> <PUBCHEM_OPENEYE_CAN_SMILES>
CCCCCCCCC=CCCCCCCCC(=O)OCCOCC(C1C(C(CO1)OCCO)OCCO)OCCO

> <PUBCHEM_OPENEYE_ISO_SMILES>
CCCCCCCC/C=C\CCCCCCCC(=O)OCCOCC([C@@H]1[C@@H](C(CO1)OCCO)OCCO)OCCO

> <PUBCHEM_CACTVS_TPSA>
133

> <PUBCHEM_MONOISOTOPIC_WEIGHT>
604.418648

> <PUBCHEM_TOTAL_CHARGE>
0

> <PUBCHEM_HEAVY_ATOM_COUNT>
42

> <PUBCHEM_ATOM_DEF_STEREO_COUNT>
2

> <PUBCHEM_ATOM_UDEF_STEREO_COUNT>
2

> <PUBCHEM_BOND_DEF_STEREO_COUNT>
1

> <PUBCHEM_BOND_UDEF_STEREO_COUNT>
0

> <PUBCHEM_ISOTOPIC_ATOM_COUNT>
0

> <PUBCHEM_COMPONENT_COUNT>
1

> <PUBCHEM_CACTVS_TAUTO_COUNT>
1

> <PUBCHEM_COORDINATE_TYPE>
1
5
255

> <PUBCHEM_BONDANNOTATIONS>
11  14  5
14  16  3
12  2  5
13  3  3

$$$$
"alpha_Cyclodextrin_CID444913"
  -OEChem-03271611072D

126132  0     1  0  0  0  0  0999 V2000
    7.6401    4.0000    0.0000 O   0  0  0  0  0  0  0  0  0  0  0  0
    4.1760    2.0000    0.0000 O   0  0  0  0  0  0  0  0  0  0  0  0
   11.1042    2.0000    0.0000 O   0  0  0  0  0  0  0  0  0  0  0  0
    4.1760   -2.0000    0.0000 O   0  0  0  0  0  0  0  0  0  0  0  0
   11.1042   -2.0000    0.0000 O   0  0  0  0  0  0  0  0  0  0  0  0
    7.6401   -4.0000    0.0000 O   0  0  0  0  0  0  0  0  0  0  0  0
    8.5062    2.5000    0.0000 O   0  0  0  0  0  0  0  0  0  0  0  0
    5.9081    2.0000    0.0000 O   0  0  0  0  0  0  0  0  0  0  0  0
   10.2382    0.5000    0.0000 O   0  0  0  0  0  0  0  0  0  0  0  0
    5.0420   -0.5000    0.0000 O   0  0  0  0  0  0  0  0  0  0  0  0
    9.3722   -2.0000    0.0000 O   0  0  0  0  0  0  0  0  0  0  0  0
    6.7741   -2.5000    0.0000 O   0  0  0  0  0  0  0  0  0  0  0  0
    9.8722   -4.8660    0.0000 O   0  0  0  0  0  0  0  0  0  0  0  0
    4.5420   -4.3660    0.0000 O   0  0  0  0  0  0  0  0  0  0  0  0
   12.9702   -0.5000    0.0000 O   0  0  0  0  0  0  0  0  0  0  0  0
    2.3100    0.5000    0.0000 O   0  0  0  0  0  0  0  0  0  0  0  0
   10.7382    4.3660    0.0000 O   0  0  0  0  0  0  0  0  0  0  0  0
    5.4081    4.8660    0.0000 O   0  0  0  0  0  0  0  0  0  0  0  0
    8.8722    4.8660    0.0000 O   0  0  0  0  0  0  0  0  0  0  0  0
    4.0420    3.5000    0.0000 O   0  0  0  0  0  0  0  0  0  0  0  0
   12.4702    1.3660    0.0000 O   0  0  0  0  0  0  0  0  0  0  0  0
    2.8100   -1.3660    0.0000 O   0  0  0  0  0  0  0  0  0  0  0  0
   11.2382   -3.5000    0.0000 O   0  0  0  0  0  0  0  0  0  0  0  0
    6.4081   -4.8660    0.0000 O   0  0  0  0  0  0  0  0  0  0  0  0
    7.1402    1.1339    0.0000 O   0  0  0  0  0  0  0  0  0  0  0  0
    8.5131    0.4960    0.0000 O   0  0  0  0  0  0  0  0  0  0  0  0
    6.7641    0.3142    0.0000 O   0  0  0  0  0  0  0  0  0  0  0  0
    8.5199   -0.2824    0.0000 O   0  0  0  0  0  0  0  0  0  0  0  0
    6.7741   -0.5000    0.0000 O   0  0  0  0  0  0  0  0  0  0  0  0
    8.3103   -1.0994    0.0000 O   0  0  0  0  0  0  0  0  0  0  0  0
    8.5062   -3.5000    0.0000 C   0  0  1  0  0  0  0  0  0  0  0  0
   11.1042   -1.0000    0.0000 C   0  0  1  0  0  0  0  0  0  0  0  0
    5.0420   -2.5000    0.0000 C   0  0  1  0  0  0  0  0  0  0  0  0
   10.2382    2.5000    0.0000 C   0  0  1  0  0  0  0  0  0  0  0  0
    4.1760    1.0000    0.0000 C   0  0  1  0  0  0  0  0  0  0  0  0
    6.7741    3.5000    0.0000 C   0  0  1  0  0  0  0  0  0  0  0  0
    5.9081    4.0000    0.0000 C   0  0  1  0  0  0  0  0  0  0  0  0
   10.2382    3.5000    0.0000 C   0  0  1  0  0  0  0  0  0  0  0  0
    3.3100    0.5000    0.0000 C   0  0  1  0  0  0  0  0  0  0  0  0
   11.9702   -0.5000    0.0000 C   0  0  1  0  0  0  0  0  0  0  0  0
    5.0420   -3.5000    0.0000 C   0  0  1  0  0  0  0  0  0  0  0  0
    9.3722   -4.0000    0.0000 C   0  0  1  0  0  0  0  0  0  0  0  0
    8.5062    3.5000    0.0000 C   0  0  1  0  0  0  0  0  0  0  0  0
    5.0420    2.5000    0.0000 C   0  0  1  0  0  0  0  0  0  0  0  0
   11.1042    1.0000    0.0000 C   0  0  1  0  0  0  0  0  0  0  0  0
    4.1760   -1.0000    0.0000 C   0  0  1  0  0  0  0  0  0  0  0  0
   10.2382   -2.5000    0.0000 C   0  0  1  0  0  0  0  0  0  0  0  0
    6.7741   -3.5000    0.0000 C   0  0  1  0  0  0  0  0  0  0  0  0
    5.9081   -4.0000    0.0000 C   0  0  2  0  0  0  0  0  0  0  0  0
   10.2382   -3.5000    0.0000 C   0  0  2  0  0  0  0  0  0  0  0  0
    3.3100   -0.5000    0.0000 C   0  0  2  0  0  0  0  0  0  0  0  0
   11.9702    0.5000    0.0000 C   0  0  2  0  0  0  0  0  0  0  0  0
    5.0420    3.5000    0.0000 C   0  0  2  0  0  0  0  0  0  0  0  0
    9.3722    4.0000    0.0000 C   0  0  2  0  0  0  0  0  0  0  0  0
    5.9081   -2.0000    0.0000 C   0  0  1  0  0  0  0  0  0  0  0  0
    8.5062   -2.5000    0.0000 C   0  0  1  0  0  0  0  0  0  0  0  0
    5.0420    0.5000    0.0000 C   0  0  1  0  0  0  0  0  0  0  0  0
   10.2382   -0.5000    0.0000 C   0  0  1  0  0  0  0  0  0  0  0  0
    6.7741    2.5000    0.0000 C   0  0  1  0  0  0  0  0  0  0  0  0
    9.3722    2.0000    0.0000 C   0  0  1  0  0  0  0  0  0  0  0  0
    7.6401    2.0000    0.0000 C   0  0  0  0  0  0  0  0  0  0  0  0
    9.3768    1.0000    0.0000 C   0  0  0  0  0  0  0  0  0  0  0  0
    5.9567    0.9042    0.0000 C   0  0  0  0  0  0  0  0  0  0  0  0
    9.3162   -0.8873    0.0000 C   0  0  0  0  0  0  0  0  0  0  0  0
    5.9081   -1.0000    0.0000 C   0  0  0  0  0  0  0  0  0  0  0  0
    7.7079   -1.8976    0.0000 C   0  0  0  0  0  0  0  0  0  0  0  0
    6.7741    4.3500    0.0000 H   0  0  0  0  0  0  0  0  0  0  0  0
    3.4399    1.4250    0.0000 H   0  0  0  0  0  0  0  0  0  0  0  0
   10.9743    2.9250    0.0000 H   0  0  0  0  0  0  0  0  0  0  0  0
    4.3059   -2.9250    0.0000 H   0  0  0  0  0  0  0  0  0  0  0  0
   11.8404   -1.4250    0.0000 H   0  0  0  0  0  0  0  0  0  0  0  0
    8.5062   -4.3500    0.0000 H   0  0  0  0  0  0  0  0  0  0  0  0
    6.2181    4.5369    0.0000 H   0  0  0  0  0  0  0  0  0  0  0  0
   10.8582    3.5000    0.0000 H   0  0  0  0  0  0  0  0  0  0  0  0
    3.0000    1.0369    0.0000 H   0  0  0  0  0  0  0  0  0  0  0  0
   12.2802   -1.0369    0.0000 H   0  0  0  0  0  0  0  0  0  0  0  0
    4.4220   -3.5000    0.0000 H   0  0  0  0  0  0  0  0  0  0  0  0
    9.0622   -4.5369    0.0000 H   0  0  0  0  0  0  0  0  0  0  0  0
    8.5061    4.3500    0.0000 H   0  0  0  0  0  0  0  0  0  0  0  0
    4.3059    2.9250    0.0000 H   0  0  0  0  0  0  0  0  0  0  0  0
   11.8403    1.4250    0.0000 H   0  0  0  0  0  0  0  0  0  0  0  0
    3.4399   -1.4250    0.0000 H   0  0  0  0  0  0  0  0  0  0  0  0
   10.9743   -2.9250    0.0000 H   0  0  0  0  0  0  0  0  0  0  0  0
    6.7741   -4.3500    0.0000 H   0  0  0  0  0  0  0  0  0  0  0  0
    9.6822    4.5369    0.0000 H   0  0  0  0  0  0  0  0  0  0  0  0
    4.7320    4.0369    0.0000 H   0  0  0  0  0  0  0  0  0  0  0  0
   12.5902    0.5000    0.0000 H   0  0  0  0  0  0  0  0  0  0  0  0
    2.6900   -0.5000    0.0000 H   0  0  0  0  0  0  0  0  0  0  0  0
   10.5482   -4.0369    0.0000 H   0  0  0  0  0  0  0  0  0  0  0  0
    5.5981   -4.5369    0.0000 H   0  0  0  0  0  0  0  0  0  0  0  0
    8.8360    1.6888    0.0000 H   0  0  0  0  0  0  0  0  0  0  0  0
    6.7741    1.8800    0.0000 H   0  0  0  0  0  0  0  0  0  0  0  0
    9.7218   -0.1568    0.0000 H   0  0  0  0  0  0  0  0  0  0  0  0
    5.5616    0.1616    0.0000 H   0  0  0  0  0  0  0  0  0  0  0  0
    8.5442   -1.8812    0.0000 H   0  0  0  0  0  0  0  0  0  0  0  0
    6.4450   -1.6900    0.0000 H   0  0  0  0  0  0  0  0  0  0  0  0
    8.8612   -1.3084    0.0000 H   0  0  0  0  0  0  0  0  0  0  0  0
    9.6519   -1.4085    0.0000 H   0  0  0  0  0  0  0  0  0  0  0  0
    5.6960   -0.4174    0.0000 H   0  0  0  0  0  0  0  0  0  0  0  0
    5.2975   -1.1077    0.0000 H   0  0  0  0  0  0  0  0  0  0  0  0
    7.2130   -1.5241    0.0000 H   0  0  0  0  0  0  0  0  0  0  0  0
    7.3345   -2.3925    0.0000 H   0  0  0  0  0  0  0  0  0  0  0  0
    6.4039    1.3337    0.0000 H   0  0  0  0  0  0  0  0  0  0  0  0
    5.6114    1.4192    0.0000 H   0  0  0  0  0  0  0  0  0  0  0  0
    9.5915    0.4184    0.0000 H   0  0  0  0  0  0  0  0  0  0  0  0
    9.9869    1.1105    0.0000 H   0  0  0  0  0  0  0  0  0  0  0  0
    8.1771    1.6900    0.0000 H   0  0  0  0  0  0  0  0  0  0  0  0
    7.9501    2.5370    0.0000 H   0  0  0  0  0  0  0  0  0  0  0  0
    5.7181    5.4030    0.0000 H   0  0  0  0  0  0  0  0  0  0  0  0
   11.3582    4.3660    0.0000 H   0  0  0  0  0  0  0  0  0  0  0  0
    2.0000    1.0369    0.0000 H   0  0  0  0  0  0  0  0  0  0  0  0
   13.2802   -1.0369    0.0000 H   0  0  0  0  0  0  0  0  0  0  0  0
    3.9220   -4.3660    0.0000 H   0  0  0  0  0  0  0  0  0  0  0  0
    9.5622   -5.4030    0.0000 H   0  0  0  0  0  0  0  0  0  0  0  0
    9.1822    5.4030    0.0000 H   0  0  0  0  0  0  0  0  0  0  0  0
    3.7320    4.0369    0.0000 H   0  0  0  0  0  0  0  0  0  0  0  0
   13.0902    1.3660    0.0000 H   0  0  0  0  0  0  0  0  0  0  0  0
    2.1900   -1.3660    0.0000 H   0  0  0  0  0  0  0  0  0  0  0  0
   11.5482   -4.0369    0.0000 H   0  0  0  0  0  0  0  0  0  0  0  0
    6.0981   -5.4030    0.0000 H   0  0  0  0  0  0  0  0  0  0  0  0
    6.5202    1.1339    0.0000 H   0  0  0  0  0  0  0  0  0  0  0  0
    7.9747    0.8035    0.0000 H   0  0  0  0  0  0  0  0  0  0  0  0
    7.3312    0.5648    0.0000 H   0  0  0  0  0  0  0  0  0  0  0  0
    7.9482   -0.5225    0.0000 H   0  0  0  0  0  0  0  0  0  0  0  0
    7.3110   -0.8100    0.0000 H   0  0  0  0  0  0  0  0  0  0  0  0
    8.8052   -1.4729    0.0000 H   0  0  0  0  0  0  0  0  0  0  0  0
  1 36  1  0  0  0  0
  1 43  1  0  0  0  0
  2 35  1  0  0  0  0
  2 44  1  0  0  0  0
  3 34  1  0  0  0  0
  3 45  1  0  0  0  0
  4 33  1  0  0  0  0
  4 46  1  0  0  0  0
  5 32  1  0  0  0  0
  5 47  1  0  0  0  0
  6 31  1  0  0  0  0
  6 48  1  0  0  0  0
  7 43  1  0  0  0  0
  7 60  1  0  0  0  0
  8 44  1  0  0  0  0
  8 59  1  0  0  0  0
  9 45  1  0  0  0  0
  9 58  1  0  0  0  0
 10 46  1  0  0  0  0
 10 57  1  0  0  0  0
 11 47  1  0  0  0  0
 11 56  1  0  0  0  0
 12 48  1  0  0  0  0
 12 55  1  0  0  0  0
 42 13  1  1  0  0  0
 13114  1  0  0  0  0
 41 14  1  1  0  0  0
 14113  1  0  0  0  0
 40 15  1  1  0  0  0
 15112  1  0  0  0  0
 39 16  1  1  0  0  0
 16111  1  0  0  0  0
 38 17  1  1  0  0  0
 17110  1  0  0  0  0
 37 18  1  1  0  0  0
 18109  1  0  0  0  0
 54 19  1  6  0  0  0
 19115  1  0  0  0  0
 53 20  1  6  0  0  0
 20116  1  0  0  0  0
 52 21  1  6  0  0  0
 21117  1  0  0  0  0
 51 22  1  6  0  0  0
 22118  1  0  0  0  0
 50 23  1  6  0  0  0
 23119  1  0  0  0  0
 49 24  1  6  0  0  0
 24120  1  0  0  0  0
 25 61  1  0  0  0  0
 25121  1  0  0  0  0
 26 62  1  0  0  0  0
 26122  1  0  0  0  0
 27 63  1  0  0  0  0
 27123  1  0  0  0  0
 28 64  1  0  0  0  0
 28124  1  0  0  0  0
 29 65  1  0  0  0  0
 29125  1  0  0  0  0
 30 66  1  0  0  0  0
 30126  1  0  0  0  0
 31 42  1  0  0  0  0
 31 56  1  0  0  0  0
 31 72  1  1  0  0  0
 32 40  1  0  0  0  0
 32 58  1  0  0  0  0
 32 71  1  1  0  0  0
 33 41  1  0  0  0  0
 33 55  1  0  0  0  0
 33 70  1  1  0  0  0
 34 38  1  0  0  0  0
 34 60  1  0  0  0  0
 34 69  1  1  0  0  0
 35 39  1  0  0  0  0
 35 57  1  0  0  0  0
 35 68  1  1  0  0  0
 36 37  1  0  0  0  0
 36 59  1  0  0  0  0
 36 67  1  1  0  0  0
 37 53  1  0  0  0  0
 37 73  1  0  0  0  0
 38 54  1  0  0  0  0
 38 74  1  0  0  0  0
 39 51  1  0  0  0  0
 39 75  1  0  0  0  0
 40 52  1  0  0  0  0
 40 76  1  0  0  0  0
 41 49  1  0  0  0  0
 41 77  1  0  0  0  0
 42 50  1  0  0  0  0
 42 78  1  0  0  0  0
 43 54  1  0  0  0  0
 43 79  1  1  0  0  0
 44 53  1  0  0  0  0
 44 80  1  1  0  0  0
 45 52  1  0  0  0  0
 45 81  1  1  0  0  0
 46 51  1  0  0  0  0
 46 82  1  1  0  0  0
 47 50  1  0  0  0  0
 47 83  1  1  0  0  0
 48 49  1  0  0  0  0
 48 84  1  1  0  0  0
 49 90  1  0  0  0  0
 50 89  1  0  0  0  0
 51 88  1  0  0  0  0
 52 87  1  0  0  0  0
 53 86  1  0  0  0  0
 54 85  1  0  0  0  0
 55 65  1  1  0  0  0
 55 96  1  0  0  0  0
 56 66  1  1  0  0  0
 56 95  1  0  0  0  0
 57 63  1  1  0  0  0
 57 94  1  0  0  0  0
 58 64  1  1  0  0  0
 58 93  1  0  0  0  0
 59 61  1  1  0  0  0
 59 92  1  0  0  0  0
 60 62  1  1  0  0  0
 60 91  1  0  0  0  0
 61107  1  0  0  0  0
 61108  1  0  0  0  0
 62105  1  0  0  0  0
 62106  1  0  0  0  0
 63103  1  0  0  0  0
 63104  1  0  0  0  0
 64 97  1  0  0  0  0
 64 98  1  0  0  0  0
 65 99  1  0  0  0  0
 65100  1  0  0  0  0
 66101  1  0  0  0  0
 66102  1  0  0  0  0
M  END
> <PUBCHEM_COMPOUND_CID>
444913

> <PUBCHEM_COMPOUND_CANONICALIZED>
1

> <PUBCHEM_CACTVS_COMPLEXITY>
1250

> <PUBCHEM_CACTVS_HBOND_ACCEPTOR>
30

> <PUBCHEM_CACTVS_HBOND_DONOR>
18

> <PUBCHEM_CACTVS_ROTATABLE_BOND>
6

> <PUBCHEM_CACTVS_SUBSKEYS>
AAADcfB8PgAAAAAAAAAAAAAAAAAAAAAAAAAkSJEiQAAAAAAAAAAAGgAACAAACBSwgAMACAAABgAAAAAAAAAAAAAAAAAAAAAAAAAREAIAAAAiQAAFAAAHAAHAYAwAAAAAAAAAAAAAAAAAAAAAAAAAAAAAAA==

> <PUBCHEM_IUPAC_INCHI>
InChI=1S/C36H60O30/c37-1-7-25-13(43)19(49)31(55-7)62-26-8(2-38)57-33(21(51)15(26)45)64-28-10(4-40)59-35(23(53)17(28)47)66-30-12(6-42)60-36(24(54)18(30)48)65-29-11(5-41)58-34(22(52)16(29)46)63-27-9(3-39)56-32(61-25)20(50)14(27)44/h7-54H,1-6H2/t7-,8-,9-,10-,11-,12-,13-,14-,15-,16-,17-,18-,19-,20-,21-,22-,23-,24-,25-,26-,27-,28-,29-,30-,31-,32-,33-,34-,35-,36-/m1/s1

> <PUBCHEM_IUPAC_INCHIKEY>
HFHDHCJBZVLPGP-RWMJIURBSA-N

> <PUBCHEM_XLOGP3_AA>
-12.9

> <PUBCHEM_EXACT_MASS>
972.316941

> <PUBCHEM_MOLECULAR_FORMULA>
C36H60O30

> <PUBCHEM_MOLECULAR_WEIGHT>
972.8436

> <PUBCHEM_OPENEYE_CAN_SMILES>
C(C1C2C(C(C(O1)OC3C(OC(C(C3O)O)OC4C(OC(C(C4O)O)OC5C(OC(C(C5O)O)OC6C(OC(C(C6O)O)OC7C(OC(O2)C(C7O)O)CO)CO)CO)CO)CO)O)O)O

> <PUBCHEM_OPENEYE_ISO_SMILES>
C([C@@H]1[C@@H]2[C@@H]([C@H]([C@H](O1)O[C@@H]3[C@H](O[C@@H]([C@@H]([C@H]3O)O)O[C@@H]4[C@H](O[C@@H]([C@@H]([C@H]4O)O)O[C@@H]5[C@H](O[C@@H]([C@@H]([C@H]5O)O)O[C@@H]6[C@H](O[C@@H]([C@@H]([C@H]6O)O)O[C@@H]7[C@H](O[C@H](O2)[C@@H]([C@H]7O)O)CO)CO)CO)CO)CO)O)O)O

> <PUBCHEM_CACTVS_TPSA>
475

> <PUBCHEM_MONOISOTOPIC_WEIGHT>
972.316941

> <PUBCHEM_TOTAL_CHARGE>
0

> <PUBCHEM_HEAVY_ATOM_COUNT>
66

> <PUBCHEM_ATOM_DEF_STEREO_COUNT>
30

> <PUBCHEM_ATOM_UDEF_STEREO_COUNT>
0

> <PUBCHEM_BOND_DEF_STEREO_COUNT>
0

> <PUBCHEM_BOND_UDEF_STEREO_COUNT>
0

> <PUBCHEM_ISOTOPIC_ATOM_COUNT>
0

> <PUBCHEM_COMPONENT_COUNT>
1

> <PUBCHEM_CACTVS_TAUTO_COUNT>
1

> <PUBCHEM_COORDINATE_TYPE>
1
5
255

> <PUBCHEM_BONDANNOTATIONS>
42  13  5
41  14  5
40  15  5
39  16  5
38  17  5
37  18  5
54  19  6
53  20  6
52  21  6
51  22  6
50  23  6
49  24  6
31  72  5
32  71  5
33  70  5
34  69  5
35  68  5
36  67  5
43  79  5
44  80  5
45  81  5
46  82  5
47  83  5
48  84  5
55  65  5
56  66  5
57  63  5
58  64  5
59  61  5
60  62  5


$$$$
"Glycogen_CID_439177"
  -OEChem-03271611082D

 87 90  0     1  0  0  0  0  0999 V2000
    6.8671   -0.5000    0.0000 O   0  0  0  0  0  0  0  0  0  0  0  0
    6.0010    2.0000    0.0000 O   0  0  0  0  0  0  0  0  0  0  0  0
    6.0010   -2.0000    0.0000 O   0  0  0  0  0  0  0  0  0  0  0  0
    4.2690    2.0000    0.0000 O   0  0  0  0  0  0  0  0  0  0  0  0
    8.5991    0.5000    0.0000 O   0  0  0  0  0  0  0  0  0  0  0  0
    4.2690    1.0000    0.0000 O   0  0  0  0  0  0  0  0  0  0  0  0
    8.5991   -2.5000    0.0000 O   0  0  0  0  0  0  0  0  0  0  0  0
    4.2690   -1.0000    0.0000 O   0  0  0  0  0  0  0  0  0  0  0  0
   10.3312    0.5000    0.0000 O   0  0  0  0  0  0  0  0  0  0  0  0
    6.0010   -4.0000    0.0000 O   0  0  0  0  0  0  0  0  0  0  0  0
    6.0010    4.0000    0.0000 O   0  0  0  0  0  0  0  0  0  0  0  0
    4.2690    5.0000    0.0000 O   0  0  0  0  0  0  0  0  0  0  0  0
    2.5369    4.0000    0.0000 O   0  0  0  0  0  0  0  0  0  0  0  0
    7.7331   -5.0000    0.0000 O   0  0  0  0  0  0  0  0  0  0  0  0
    8.5991    2.5000    0.0000 O   0  0  0  0  0  0  0  0  0  0  0  0
    9.4651   -4.0000    0.0000 O   0  0  0  0  0  0  0  0  0  0  0  0
   10.3312    3.5000    0.0000 O   0  0  0  0  0  0  0  0  0  0  0  0
   12.0632    2.5000    0.0000 O   0  0  0  0  0  0  0  0  0  0  0  0
    8.5991   -0.5000    0.0000 O   0  0  0  0  0  0  0  0  0  0  0  0
    2.5369    1.0000    0.0000 O   0  0  0  0  0  0  0  0  0  0  0  0
   12.9292    1.0000    0.0000 O   0  0  0  0  0  0  0  0  0  0  0  0
    6.0010    1.0000    0.0000 C   0  0  2  0  0  0  0  0  0  0  0  0
    6.8671    0.5000    0.0000 C   0  0  1  0  0  0  0  0  0  0  0  0
    5.1350    0.5000    0.0000 C   0  0  1  0  0  0  0  0  0  0  0  0
    5.1350   -0.5000    0.0000 C   0  0  2  0  0  0  0  0  0  0  0  0
    6.0010   -1.0000    0.0000 C   0  0  2  0  0  0  0  0  0  0  0  0
    6.8671   -2.5000    0.0000 C   0  0  1  0  0  0  0  0  0  0  0  0
    5.1350    2.5000    0.0000 C   0  0  1  0  0  0  0  0  0  0  0  0
    7.7331    1.0000    0.0000 C   0  0  0  0  0  0  0  0  0  0  0  0
    6.8671   -3.5000    0.0000 C   0  0  1  0  0  0  0  0  0  0  0  0
    5.1350    3.5000    0.0000 C   0  0  1  0  0  0  0  0  0  0  0  0
    7.7331   -2.0000    0.0000 C   0  0  1  0  0  0  0  0  0  0  0  0
    4.2690    4.0000    0.0000 C   0  0  2  0  0  0  0  0  0  0  0  0
    3.4030    3.5000    0.0000 C   0  0  1  0  0  0  0  0  0  0  0  0
    3.4030    2.5000    0.0000 C   0  0  1  0  0  0  0  0  0  0  0  0
    7.7331   -4.0000    0.0000 C   0  0  2  0  0  0  0  0  0  0  0  0
    9.4651    1.0000    0.0000 C   0  0  1  0  0  0  0  0  0  0  0  0
    9.4651    2.0000    0.0000 C   0  0  1  0  0  0  0  0  0  0  0  0
    8.5991   -3.5000    0.0000 C   0  0  2  0  0  0  0  0  0  0  0  0
   10.3312    2.5000    0.0000 C   0  0  2  0  0  0  0  0  0  0  0  0
   11.1972    2.0000    0.0000 C   0  0  1  0  0  0  0  0  0  0  0  0
   11.1972    1.0000    0.0000 C   0  0  1  0  0  0  0  0  0  0  0  0
    7.7331   -1.0000    0.0000 C   0  0  0  0  0  0  0  0  0  0  0  0
    2.5369    2.0000    0.0000 C   0  0  0  0  0  0  0  0  0  0  0  0
   12.0632    0.5000    0.0000 C   0  0  0  0  0  0  0  0  0  0  0  0
    6.5380    1.3100    0.0000 H   0  0  0  0  0  0  0  0  0  0  0  0
    7.4040    0.1900    0.0000 H   0  0  0  0  0  0  0  0  0  0  0  0
    5.1350    1.1200    0.0000 H   0  0  0  0  0  0  0  0  0  0  0  0
    5.1350   -1.1200    0.0000 H   0  0  0  0  0  0  0  0  0  0  0  0
    5.4641   -1.3100    0.0000 H   0  0  0  0  0  0  0  0  0  0  0  0
    6.3301   -2.8100    0.0000 H   0  0  0  0  0  0  0  0  0  0  0  0
    5.1350    1.8800    0.0000 H   0  0  0  0  0  0  0  0  0  0  0  0
    8.1316    1.4750    0.0000 H   0  0  0  0  0  0  0  0  0  0  0  0
    7.3346    1.4750    0.0000 H   0  0  0  0  0  0  0  0  0  0  0  0
    6.3301   -3.1900    0.0000 H   0  0  0  0  0  0  0  0  0  0  0  0
    5.1350    4.1200    0.0000 H   0  0  0  0  0  0  0  0  0  0  0  0
    8.2700   -1.6900    0.0000 H   0  0  0  0  0  0  0  0  0  0  0  0
    4.8059    4.3100    0.0000 H   0  0  0  0  0  0  0  0  0  0  0  0
    3.4030    4.1200    0.0000 H   0  0  0  0  0  0  0  0  0  0  0  0
    3.4030    1.8800    0.0000 H   0  0  0  0  0  0  0  0  0  0  0  0
    8.2700   -4.3100    0.0000 H   0  0  0  0  0  0  0  0  0  0  0  0
    9.4651    0.3800    0.0000 H   0  0  0  0  0  0  0  0  0  0  0  0
    9.4651    2.6200    0.0000 H   0  0  0  0  0  0  0  0  0  0  0  0
    8.5991   -4.1200    0.0000 H   0  0  0  0  0  0  0  0  0  0  0  0
   10.8681    2.8100    0.0000 H   0  0  0  0  0  0  0  0  0  0  0  0
   11.1972    2.6200    0.0000 H   0  0  0  0  0  0  0  0  0  0  0  0
   11.1972    0.3800    0.0000 H   0  0  0  0  0  0  0  0  0  0  0  0
    3.7320    0.6900    0.0000 H   0  0  0  0  0  0  0  0  0  0  0  0
    4.2690   -1.6200    0.0000 H   0  0  0  0  0  0  0  0  0  0  0  0
    7.5210   -0.4174    0.0000 H   0  0  0  0  0  0  0  0  0  0  0  0
    7.1225   -1.1077    0.0000 H   0  0  0  0  0  0  0  0  0  0  0  0
    2.3249    2.5826    0.0000 H   0  0  0  0  0  0  0  0  0  0  0  0
    1.9264    1.8923    0.0000 H   0  0  0  0  0  0  0  0  0  0  0  0
    6.0010   -4.6200    0.0000 H   0  0  0  0  0  0  0  0  0  0  0  0
    6.0010    4.6200    0.0000 H   0  0  0  0  0  0  0  0  0  0  0  0
   11.6647    0.0251    0.0000 H   0  0  0  0  0  0  0  0  0  0  0  0
   12.4617    0.0251    0.0000 H   0  0  0  0  0  0  0  0  0  0  0  0
    3.7320    5.3100    0.0000 H   0  0  0  0  0  0  0  0  0  0  0  0
    2.0000    3.6900    0.0000 H   0  0  0  0  0  0  0  0  0  0  0  0
    8.2700   -5.3100    0.0000 H   0  0  0  0  0  0  0  0  0  0  0  0
    8.5991    3.1200    0.0000 H   0  0  0  0  0  0  0  0  0  0  0  0
   10.0021   -3.6900    0.0000 H   0  0  0  0  0  0  0  0  0  0  0  0
   10.8681    3.8100    0.0000 H   0  0  0  0  0  0  0  0  0  0  0  0
   12.6002    2.1900    0.0000 H   0  0  0  0  0  0  0  0  0  0  0  0
    9.1360   -0.8100    0.0000 H   0  0  0  0  0  0  0  0  0  0  0  0
    2.0000    0.6900    0.0000 H   0  0  0  0  0  0  0  0  0  0  0  0
   13.4662    0.6900    0.0000 H   0  0  0  0  0  0  0  0  0  0  0  0
  1 23  1  0  0  0  0
  1 26  1  0  0  0  0
 22  2  1  6  0  0  0
 28  2  1  1  0  0  0
 26  3  1  6  0  0  0
 27  3  1  6  0  0  0
  4 28  1  0  0  0  0
  4 35  1  0  0  0  0
  5 29  1  0  0  0  0
 37  5  1  6  0  0  0
 24  6  1  1  0  0  0
  6 68  1  0  0  0  0
  7 32  1  0  0  0  0
  7 39  1  0  0  0  0
 25  8  1  6  0  0  0
  8 69  1  0  0  0  0
  9 37  1  0  0  0  0
  9 42  1  0  0  0  0
 30 10  1  1  0  0  0
 10 74  1  0  0  0  0
 31 11  1  1  0  0  0
 11 75  1  0  0  0  0
 33 12  1  6  0  0  0
 12 78  1  0  0  0  0
 34 13  1  1  0  0  0
 13 79  1  0  0  0  0
 36 14  1  6  0  0  0
 14 80  1  0  0  0  0
 38 15  1  6  0  0  0
 15 81  1  0  0  0  0
 39 16  1  6  0  0  0
 16 82  1  0  0  0  0
 40 17  1  1  0  0  0
 17 83  1  0  0  0  0
 41 18  1  6  0  0  0
 18 84  1  0  0  0  0
 19 43  1  0  0  0  0
 19 85  1  0  0  0  0
 20 44  1  0  0  0  0
 20 86  1  0  0  0  0
 21 45  1  0  0  0  0
 21 87  1  0  0  0  0
 22 23  1  0  0  0  0
 22 24  1  0  0  0  0
 22 46  1  0  0  0  0
 23 29  1  1  0  0  0
 23 47  1  0  0  0  0
 24 25  1  0  0  0  0
 24 48  1  0  0  0  0
 25 26  1  0  0  0  0
 25 49  1  0  0  0  0
 26 50  1  0  0  0  0
 27 30  1  0  0  0  0
 27 32  1  0  0  0  0
 27 51  1  0  0  0  0
 28 31  1  0  0  0  0
 28 52  1  0  0  0  0
 29 53  1  0  0  0  0
 29 54  1  0  0  0  0
 30 36  1  0  0  0  0
 30 55  1  0  0  0  0
 31 33  1  0  0  0  0
 31 56  1  0  0  0  0
 32 43  1  1  0  0  0
 32 57  1  0  0  0  0
 33 34  1  0  0  0  0
 33 58  1  0  0  0  0
 34 35  1  0  0  0  0
 34 59  1  0  0  0  0
 35 44  1  6  0  0  0
 35 60  1  0  0  0  0
 36 39  1  0  0  0  0
 36 61  1  0  0  0  0
 37 38  1  0  0  0  0
 37 62  1  0  0  0  0
 38 40  1  0  0  0  0
 38 63  1  0  0  0  0
 39 64  1  0  0  0  0
 40 41  1  0  0  0  0
 40 65  1  0  0  0  0
 41 42  1  0  0  0  0
 41 66  1  0  0  0  0
 42 45  1  1  0  0  0
 42 67  1  0  0  0  0
 43 70  1  0  0  0  0
 43 71  1  0  0  0  0
 44 72  1  0  0  0  0
 44 73  1  0  0  0  0
 45 76  1  0  0  0  0
 45 77  1  0  0  0  0
M  END
> <PUBCHEM_COMPOUND_CID>
439177

> <PUBCHEM_COMPOUND_CANONICALIZED>
1

> <PUBCHEM_CACTVS_COMPLEXITY>
918

> <PUBCHEM_CACTVS_HBOND_ACCEPTOR>
21

> <PUBCHEM_CACTVS_HBOND_DONOR>
14

> <PUBCHEM_CACTVS_ROTATABLE_BOND>
10

> <PUBCHEM_CACTVS_SUBSKEYS>
AAADcfB4PgAAAAAAAAAAAAAAAAAAAAAAAAAkSJEgAAAAAAAAAAAAGgAACAAACBSwgAMACAAABgAAAAAAAAAAAAAAAAAAAAAAAAAREAIAAAAiQAAFAAAHAAHAYAwAAAAAAAAAAAAAAAAAAAAAAAAAAAAAAA==

> <PUBCHEM_IUPAC_OPENEYE_NAME>
(2S,3R,4S,5S,6R)-2-[[(2R,3S,4R,5R,6R)-4,5-dihydroxy-3-[(2R,3R,4S,5S,6R)-3,4,5-trihydroxy-6-(hydroxymethyl)tetrahydropyran-2-yl]oxy-6-[(2R,3S,4R,5R,6S)-4,5,6-trihydroxy-2-(hydroxymethyl)tetrahydropyran-3-yl]oxy-tetrahydropyran-2-yl]methoxy]-6-(hydroxymethyl)tetrahydropyran-3,4,5-triol

> <PUBCHEM_IUPAC_CAS_NAME>
(2S,3R,4S,5S,6R)-2-[[(2R,3S,4R,5R,6R)-4,5-dihydroxy-3-[[(2R,3R,4S,5S,6R)-3,4,5-trihydroxy-6-(hydroxymethyl)-2-oxanyl]oxy]-6-[[(2R,3S,4R,5R,6S)-4,5,6-trihydroxy-2-(hydroxymethyl)-3-oxanyl]oxy]-2-oxanyl]methoxy]-6-(hydroxymethyl)oxane-3,4,5-triol

> <PUBCHEM_IUPAC_NAME>
(2S,3R,4S,5S,6R)-2-[[(2R,3S,4R,5R,6R)-4,5-dihydroxy-3-[(2R,3R,4S,5S,6R)-3,4,5-trihydroxy-6-(hydroxymethyl)oxan-2-yl]oxy-6-[(2R,3S,4R,5R,6S)-4,5,6-trihydroxy-2-(hydroxymethyl)oxan-3-yl]oxyoxan-2-yl]methoxy]-6-(hydroxymethyl)oxane-3,4,5-triol

> <PUBCHEM_IUPAC_SYSTEMATIC_NAME>
(2R,3S,4S,5R,6S)-2-(hydroxymethyl)-6-[[(2R,3S,4R,5R,6R)-6-[(2R,3S,4R,5R,6S)-2-(hydroxymethyl)-4,5,6-tris(oxidanyl)oxan-3-yl]oxy-3-[(2R,3R,4S,5S,6R)-6-(hydroxymethyl)-3,4,5-tris(oxidanyl)oxan-2-yl]oxy-4,5-bis(oxidanyl)oxan-2-yl]methoxy]oxane-3,4,5-triol

> <PUBCHEM_IUPAC_TRADITIONAL_NAME>
(2S,3R,4S,5S,6R)-2-[[(2R,3S,4R,5R,6R)-4,5-dihydroxy-3-[(2R,3R,4S,5S,6R)-3,4,5-trihydroxy-6-methylol-tetrahydropyran-2-yl]oxy-6-[(2R,3S,4R,5R,6S)-4,5,6-trihydroxy-2-methylol-tetrahydropyran-3-yl]oxy-tetrahydropyran-2-yl]methoxy]-6-methylol-tetrahydropyran-3,4,5-triol

> <PUBCHEM_IUPAC_INCHI>
InChI=1S/C24H42O21/c25-1-5-9(28)11(30)16(35)22(41-5)39-4-8-20(45-23-17(36)12(31)10(29)6(2-26)42-23)14(33)18(37)24(43-8)44-19-7(3-27)40-21(38)15(34)13(19)32/h5-38H,1-4H2/t5-,6-,7-,8-,9-,10-,11+,12+,13-,14-,15-,16-,17-,18-,19-,20-,21+,22+,23-,24-/m1/s1

> <PUBCHEM_IUPAC_INCHIKEY>
BYSGBSNPRWKUQH-UJDJLXLFSA-N

> <PUBCHEM_XLOGP3_AA>
-8.5

> <PUBCHEM_EXACT_MASS>
666.221858

> <PUBCHEM_MOLECULAR_FORMULA>
C24H42O21

> <PUBCHEM_MOLECULAR_WEIGHT>
666.57768

> <PUBCHEM_OPENEYE_CAN_SMILES>
C(C1C(C(C(C(O1)OCC2C(C(C(C(O2)OC3C(OC(C(C3O)O)O)CO)O)O)OC4C(C(C(C(O4)CO)O)O)O)O)O)O)O

> <PUBCHEM_OPENEYE_ISO_SMILES>
C([C@@H]1[C@H]([C@@H]([C@H]([C@H](O1)OC[C@@H]2[C@H]([C@@H]([C@H]([C@H](O2)O[C@@H]3[C@H](O[C@@H]([C@@H]([C@H]3O)O)O)CO)O)O)O[C@@H]4[C@@H]([C@H]([C@@H]([C@H](O4)CO)O)O)O)O)O)O)O

> <PUBCHEM_CACTVS_TPSA>
348

> <PUBCHEM_MONOISOTOPIC_WEIGHT>
666.221858

> <PUBCHEM_TOTAL_CHARGE>
0

> <PUBCHEM_HEAVY_ATOM_COUNT>
45

> <PUBCHEM_ATOM_DEF_STEREO_COUNT>
20

> <PUBCHEM_ATOM_UDEF_STEREO_COUNT>
0

> <PUBCHEM_BOND_DEF_STEREO_COUNT>
0

> <PUBCHEM_BOND_UDEF_STEREO_COUNT>
0

> <PUBCHEM_ISOTOPIC_ATOM_COUNT>
0

> <PUBCHEM_COMPONENT_COUNT>
1

> <PUBCHEM_CACTVS_TAUTO_COUNT>
1

> <PUBCHEM_COORDINATE_TYPE>
1
5
255

> <PUBCHEM_BONDANNOTATIONS>
30  10  5
31  11  5
33  12  6
34  13  5
36  14  6
38  15  6
39  16  6
40  17  5
41  18  6
22  2  6
28  2  5
23  29  5
26  3  6
27  3  6
32  43  5
35  44  6
42  45  5
37  5  6
24  6  5
25  8  6

$$$$
"D-Cellobiose_CID_10712"
  -OEChem-03271611102D

 45 46  0     1  0  0  0  0  0999 V2000
    6.8671   -0.5000    0.0000 O   0  0  0  0  0  0  0  0  0  0  0  0
    5.1350   -0.5000    0.0000 O   0  0  0  0  0  0  0  0  0  0  0  0
    6.0010    2.0000    0.0000 O   0  0  0  0  0  0  0  0  0  0  0  0
    8.5991    0.5000    0.0000 O   0  0  0  0  0  0  0  0  0  0  0  0
    6.8671   -2.5000    0.0000 O   0  0  0  0  0  0  0  0  0  0  0  0
    5.1350   -3.5000    0.0000 O   0  0  0  0  0  0  0  0  0  0  0  0
    3.4030   -2.5000    0.0000 O   0  0  0  0  0  0  0  0  0  0  0  0
    8.5991    2.5000    0.0000 O   0  0  0  0  0  0  0  0  0  0  0  0
    6.8671    3.5000    0.0000 O   0  0  0  0  0  0  0  0  0  0  0  0
    4.2690    1.0000    0.0000 O   0  0  0  0  0  0  0  0  0  0  0  0
    2.5369   -1.0000    0.0000 O   0  0  0  0  0  0  0  0  0  0  0  0
    6.8671    0.5000    0.0000 C   0  0  1  0  0  0  0  0  0  0  0  0
    7.7331    1.0000    0.0000 C   0  0  1  0  0  0  0  0  0  0  0  0
    6.0010   -1.0000    0.0000 C   0  0  2  0  0  0  0  0  0  0  0  0
    6.0010    1.0000    0.0000 C   0  0  1  0  0  0  0  0  0  0  0  0
    6.0010   -2.0000    0.0000 C   0  0  1  0  0  0  0  0  0  0  0  0
    5.1350   -2.5000    0.0000 C   0  0  2  0  0  0  0  0  0  0  0  0
    4.2690   -2.0000    0.0000 C   0  0  1  0  0  0  0  0  0  0  0  0
    7.7331    2.0000    0.0000 C   0  0  2  0  0  0  0  0  0  0  0  0
    4.2690   -1.0000    0.0000 C   0  0  1  0  0  0  0  0  0  0  0  0
    6.8671    2.5000    0.0000 C   0  0  1  0  0  0  0  0  0  0  0  0
    5.1350    0.5000    0.0000 C   0  0  0  0  0  0  0  0  0  0  0  0
    3.4030   -0.5000    0.0000 C   0  0  0  0  0  0  0  0  0  0  0  0
    6.3301    0.1900    0.0000 H   0  0  0  0  0  0  0  0  0  0  0  0
    7.7331    0.3800    0.0000 H   0  0  0  0  0  0  0  0  0  0  0  0
    6.5380   -1.3100    0.0000 H   0  0  0  0  0  0  0  0  0  0  0  0
    5.4641    1.3100    0.0000 H   0  0  0  0  0  0  0  0  0  0  0  0
    6.5380   -1.6900    0.0000 H   0  0  0  0  0  0  0  0  0  0  0  0
    5.6720   -2.8100    0.0000 H   0  0  0  0  0  0  0  0  0  0  0  0
    4.2690   -2.6200    0.0000 H   0  0  0  0  0  0  0  0  0  0  0  0
    7.7331    2.6200    0.0000 H   0  0  0  0  0  0  0  0  0  0  0  0
    4.2690   -0.3800    0.0000 H   0  0  0  0  0  0  0  0  0  0  0  0
    6.3301    2.8100    0.0000 H   0  0  0  0  0  0  0  0  0  0  0  0
    4.7365    0.0251    0.0000 H   0  0  0  0  0  0  0  0  0  0  0  0
    5.5335    0.0251    0.0000 H   0  0  0  0  0  0  0  0  0  0  0  0
    3.8015   -0.0251    0.0000 H   0  0  0  0  0  0  0  0  0  0  0  0
    3.0044   -0.0251    0.0000 H   0  0  0  0  0  0  0  0  0  0  0  0
    9.1360    0.8100    0.0000 H   0  0  0  0  0  0  0  0  0  0  0  0
    6.8671   -3.1200    0.0000 H   0  0  0  0  0  0  0  0  0  0  0  0
    4.5981   -3.8100    0.0000 H   0  0  0  0  0  0  0  0  0  0  0  0
    3.4030   -3.1200    0.0000 H   0  0  0  0  0  0  0  0  0  0  0  0
    8.5991    3.1200    0.0000 H   0  0  0  0  0  0  0  0  0  0  0  0
    6.3301    3.8100    0.0000 H   0  0  0  0  0  0  0  0  0  0  0  0
    4.2690    1.6200    0.0000 H   0  0  0  0  0  0  0  0  0  0  0  0
    2.0000   -0.6900    0.0000 H   0  0  0  0  0  0  0  0  0  0  0  0
 12  1  1  6  0  0  0
 14  1  1  1  0  0  0
  2 14  1  0  0  0  0
  2 20  1  0  0  0  0
  3 15  1  0  0  0  0
  3 21  1  0  0  0  0
 13  4  1  1  0  0  0
  4 38  1  0  0  0  0
 16  5  1  6  0  0  0
  5 39  1  0  0  0  0
 17  6  1  1  0  0  0
  6 40  1  0  0  0  0
 18  7  1  6  0  0  0
  7 41  1  0  0  0  0
 19  8  1  6  0  0  0
  8 42  1  0  0  0  0
 21  9  1  1  0  0  0
  9 43  1  0  0  0  0
 10 22  1  0  0  0  0
 10 44  1  0  0  0  0
 11 23  1  0  0  0  0
 11 45  1  0  0  0  0
 12 13  1  0  0  0  0
 12 15  1  0  0  0  0
 12 24  1  0  0  0  0
 13 19  1  0  0  0  0
 13 25  1  0  0  0  0
 14 16  1  0  0  0  0
 14 26  1  0  0  0  0
 15 22  1  1  0  0  0
 15 27  1  0  0  0  0
 16 17  1  0  0  0  0
 16 28  1  0  0  0  0
 17 18  1  0  0  0  0
 17 29  1  0  0  0  0
 18 20  1  0  0  0  0
 18 30  1  0  0  0  0
 19 21  1  0  0  0  0
 19 31  1  0  0  0  0
 20 23  1  1  0  0  0
 20 32  1  0  0  0  0
 21 33  1  0  0  0  0
 22 34  1  0  0  0  0
 22 35  1  0  0  0  0
 23 36  1  0  0  0  0
 23 37  1  0  0  0  0
M  END
> <PUBCHEM_COMPOUND_CID>
10712

> <PUBCHEM_COMPOUND_CANONICALIZED>
1

> <PUBCHEM_CACTVS_COMPLEXITY>
382

> <PUBCHEM_CACTVS_HBOND_ACCEPTOR>
11

> <PUBCHEM_CACTVS_HBOND_DONOR>
8

> <PUBCHEM_CACTVS_ROTATABLE_BOND>
4

> <PUBCHEM_CACTVS_SUBSKEYS>
AAADceBwPAAAAAAAAAAAAAAAAAAAAAAAAAAkSAAAAAAAAAAAAAAAGgAACAAACBSwgAMACAAABgAAAAAAAAAAAAAAAAAAAAAAAAAREAIAAAAiQAAFAAAHAAHAYAwAAAAAAAAAAAAAAAAAAAAAAAAAAAAAAA==

> <PUBCHEM_IUPAC_OPENEYE_NAME>
(2R,3S,4S,5R,6S)-2-(hydroxymethyl)-6-[(2R,3S,4R,5R,6R)-4,5,6-trihydroxy-2-(hydroxymethyl)tetrahydropyran-3-yl]oxy-tetrahydropyran-3,4,5-triol

> <PUBCHEM_IUPAC_CAS_NAME>
(2R,3S,4S,5R,6S)-2-(hydroxymethyl)-6-[[(2R,3S,4R,5R,6R)-4,5,6-trihydroxy-2-(hydroxymethyl)-3-oxanyl]oxy]oxane-3,4,5-triol

> <PUBCHEM_IUPAC_NAME>
(2R,3S,4S,5R,6S)-2-(hydroxymethyl)-6-[(2R,3S,4R,5R,6R)-4,5,6-trihydroxy-2-(hydroxymethyl)oxan-3-yl]oxyoxane-3,4,5-triol

> <PUBCHEM_IUPAC_SYSTEMATIC_NAME>
(2R,3S,4S,5R,6S)-2-(hydroxymethyl)-6-[(2R,3S,4R,5R,6R)-2-(hydroxymethyl)-4,5,6-tris(oxidanyl)oxan-3-yl]oxy-oxane-3,4,5-triol

> <PUBCHEM_IUPAC_TRADITIONAL_NAME>
(2R,3S,4S,5R,6S)-2-methylol-6-[(2R,3S,4R,5R,6R)-4,5,6-trihydroxy-2-methylol-tetrahydropyran-3-yl]oxy-tetrahydropyran-3,4,5-triol

> <PUBCHEM_IUPAC_INCHI>
InChI=1S/C12H22O11/c13-1-3-5(15)6(16)9(19)12(22-3)23-10-4(2-14)21-11(20)8(18)7(10)17/h3-20H,1-2H2/t3-,4-,5-,6+,7-,8-,9-,10-,11-,12+/m1/s1

> <PUBCHEM_IUPAC_INCHIKEY>
GUBGYTABKSRVRQ-QRZGKKJRSA-N

> <PUBCHEM_XLOGP3_AA>
-4.7

> <PUBCHEM_EXACT_MASS>
342.116212

> <PUBCHEM_MOLECULAR_FORMULA>
C12H22O11

> <PUBCHEM_MOLECULAR_WEIGHT>
342.29648

> <PUBCHEM_OPENEYE_CAN_SMILES>
C(C1C(C(C(C(O1)OC2C(OC(C(C2O)O)O)CO)O)O)O)O

> <PUBCHEM_OPENEYE_ISO_SMILES>
C([C@@H]1[C@H]([C@@H]([C@H]([C@@H](O1)O[C@@H]2[C@H](O[C@H]([C@@H]([C@H]2O)O)O)CO)O)O)O)O

> <PUBCHEM_CACTVS_TPSA>
190

> <PUBCHEM_MONOISOTOPIC_WEIGHT>
342.116212

> <PUBCHEM_TOTAL_CHARGE>
0

> <PUBCHEM_HEAVY_ATOM_COUNT>
23

> <PUBCHEM_ATOM_DEF_STEREO_COUNT>
10

> <PUBCHEM_ATOM_UDEF_STEREO_COUNT>
0

> <PUBCHEM_BOND_DEF_STEREO_COUNT>
0

> <PUBCHEM_BOND_UDEF_STEREO_COUNT>
0

> <PUBCHEM_ISOTOPIC_ATOM_COUNT>
0

> <PUBCHEM_COMPONENT_COUNT>
1

> <PUBCHEM_CACTVS_TAUTO_COUNT>
1

> <PUBCHEM_COORDINATE_TYPE>
1
5
255

> <PUBCHEM_BONDANNOTATIONS>
12  1  6
14  1  5
15  22  5
20  23  5
13  4  5
16  5  6
17  6  5
18  7  6
19  8  6
21  9  5

$$$$
"alpha_lactose CID84571"
  -OEChem-03271612182D

 45 46  0     1  0  0  0  0  0999 V2000
    6.8671   -0.5000    0.0000 O   0  0  0  0  0  0  0  0  0  0  0  0
    5.1350   -0.5000    0.0000 O   0  0  0  0  0  0  0  0  0  0  0  0
    6.0010    2.0000    0.0000 O   0  0  0  0  0  0  0  0  0  0  0  0
    8.5991    0.5000    0.0000 O   0  0  0  0  0  0  0  0  0  0  0  0
    6.8671   -2.5000    0.0000 O   0  0  0  0  0  0  0  0  0  0  0  0
    5.1350   -3.5000    0.0000 O   0  0  0  0  0  0  0  0  0  0  0  0
    3.4030   -2.5000    0.0000 O   0  0  0  0  0  0  0  0  0  0  0  0
    8.5991    2.5000    0.0000 O   0  0  0  0  0  0  0  0  0  0  0  0
    6.8671    3.5000    0.0000 O   0  0  0  0  0  0  0  0  0  0  0  0
    4.2690    1.0000    0.0000 O   0  0  0  0  0  0  0  0  0  0  0  0
    2.5369   -1.0000    0.0000 O   0  0  0  0  0  0  0  0  0  0  0  0
    6.8671    0.5000    0.0000 C   0  0  1  0  0  0  0  0  0  0  0  0
    6.0010   -1.0000    0.0000 C   0  0  2  0  0  0  0  0  0  0  0  0
    7.7331    1.0000    0.0000 C   0  0  1  0  0  0  0  0  0  0  0  0
    6.0010   -2.0000    0.0000 C   0  0  1  0  0  0  0  0  0  0  0  0
    6.0010    1.0000    0.0000 C   0  0  1  0  0  0  0  0  0  0  0  0
    5.1350   -2.5000    0.0000 C   0  0  2  0  0  0  0  0  0  0  0  0
    4.2690   -2.0000    0.0000 C   0  0  2  0  0  0  0  0  0  0  0  0
    4.2690   -1.0000    0.0000 C   0  0  1  0  0  0  0  0  0  0  0  0
    7.7331    2.0000    0.0000 C   0  0  2  0  0  0  0  0  0  0  0  0
    6.8671    2.5000    0.0000 C   0  0  2  0  0  0  0  0  0  0  0  0
    5.1350    0.5000    0.0000 C   0  0  0  0  0  0  0  0  0  0  0  0
    3.4030   -0.5000    0.0000 C   0  0  0  0  0  0  0  0  0  0  0  0
    6.3301    0.1900    0.0000 H   0  0  0  0  0  0  0  0  0  0  0  0
    6.5380   -1.3100    0.0000 H   0  0  0  0  0  0  0  0  0  0  0  0
    7.7331    0.3800    0.0000 H   0  0  0  0  0  0  0  0  0  0  0  0
    6.5380   -1.6900    0.0000 H   0  0  0  0  0  0  0  0  0  0  0  0
    5.4641    1.3100    0.0000 H   0  0  0  0  0  0  0  0  0  0  0  0
    5.6720   -2.8100    0.0000 H   0  0  0  0  0  0  0  0  0  0  0  0
    4.2690   -2.6200    0.0000 H   0  0  0  0  0  0  0  0  0  0  0  0
    4.2690   -0.3800    0.0000 H   0  0  0  0  0  0  0  0  0  0  0  0
    7.7331    2.6200    0.0000 H   0  0  0  0  0  0  0  0  0  0  0  0
    6.3301    2.8100    0.0000 H   0  0  0  0  0  0  0  0  0  0  0  0
    4.7365    0.0251    0.0000 H   0  0  0  0  0  0  0  0  0  0  0  0
    5.5335    0.0251    0.0000 H   0  0  0  0  0  0  0  0  0  0  0  0
    3.8015   -0.0251    0.0000 H   0  0  0  0  0  0  0  0  0  0  0  0
    3.0044   -0.0251    0.0000 H   0  0  0  0  0  0  0  0  0  0  0  0
    9.1360    0.8100    0.0000 H   0  0  0  0  0  0  0  0  0  0  0  0
    6.8671   -3.1200    0.0000 H   0  0  0  0  0  0  0  0  0  0  0  0
    4.5981   -3.8100    0.0000 H   0  0  0  0  0  0  0  0  0  0  0  0
    3.4030   -3.1200    0.0000 H   0  0  0  0  0  0  0  0  0  0  0  0
    8.5991    3.1200    0.0000 H   0  0  0  0  0  0  0  0  0  0  0  0
    6.3301    3.8100    0.0000 H   0  0  0  0  0  0  0  0  0  0  0  0
    4.2690    1.6200    0.0000 H   0  0  0  0  0  0  0  0  0  0  0  0
    2.0000   -0.6900    0.0000 H   0  0  0  0  0  0  0  0  0  0  0  0
 12  1  1  6  0  0  0
 13  1  1  1  0  0  0
  2 13  1  0  0  0  0
  2 19  1  0  0  0  0
  3 16  1  0  0  0  0
  3 21  1  0  0  0  0
 14  4  1  1  0  0  0
  4 38  1  0  0  0  0
 15  5  1  6  0  0  0
  5 39  1  0  0  0  0
 17  6  1  1  0  0  0
  6 40  1  0  0  0  0
 18  7  1  1  0  0  0
  7 41  1  0  0  0  0
 20  8  1  6  0  0  0
  8 42  1  0  0  0  0
 21  9  1  6  0  0  0
  9 43  1  0  0  0  0
 10 22  1  0  0  0  0
 10 44  1  0  0  0  0
 11 23  1  0  0  0  0
 11 45  1  0  0  0  0
 12 14  1  0  0  0  0
 12 16  1  0  0  0  0
 12 24  1  0  0  0  0
 13 15  1  0  0  0  0
 13 25  1  0  0  0  0
 14 20  1  0  0  0  0
 14 26  1  0  0  0  0
 15 17  1  0  0  0  0
 15 27  1  0  0  0  0
 16 22  1  1  0  0  0
 16 28  1  0  0  0  0
 17 18  1  0  0  0  0
 17 29  1  0  0  0  0
 18 19  1  0  0  0  0
 18 30  1  0  0  0  0
 19 23  1  1  0  0  0
 19 31  1  0  0  0  0
 20 21  1  0  0  0  0
 20 32  1  0  0  0  0
 21 33  1  0  0  0  0
 22 34  1  0  0  0  0
 22 35  1  0  0  0  0
 23 36  1  0  0  0  0
 23 37  1  0  0  0  0
M  END
> <PUBCHEM_COMPOUND_CID>
84571

> <PUBCHEM_COMPOUND_CANONICALIZED>
1

> <PUBCHEM_CACTVS_COMPLEXITY>
382

> <PUBCHEM_CACTVS_HBOND_ACCEPTOR>
11

> <PUBCHEM_CACTVS_HBOND_DONOR>
8

> <PUBCHEM_CACTVS_ROTATABLE_BOND>
4

> <PUBCHEM_CACTVS_SUBSKEYS>
AAADceBwPAAAAAAAAAAAAAAAAAAAAAAAAAAkSAAAAAAAAAAAAAAAGgAACAAACBSwgAMACAAABgAAAAAAAAAAAAAAAAAAAAAAAAAREAIAAAAiQAAFAAAHAAHAYAwAAAAAAAAAAAAAAAAAAAAAAAAAAAAAAA==

> <PUBCHEM_IUPAC_OPENEYE_NAME>
(2R,3R,4S,5R,6S)-2-(hydroxymethyl)-6-[(2R,3S,4R,5R,6S)-4,5,6-trihydroxy-2-(hydroxymethyl)tetrahydropyran-3-yl]oxy-tetrahydropyran-3,4,5-triol

> <PUBCHEM_IUPAC_CAS_NAME>
(2R,3R,4S,5R,6S)-2-(hydroxymethyl)-6-[[(2R,3S,4R,5R,6S)-4,5,6-trihydroxy-2-(hydroxymethyl)-3-oxanyl]oxy]oxane-3,4,5-triol

> <PUBCHEM_IUPAC_NAME>
(2R,3R,4S,5R,6S)-2-(hydroxymethyl)-6-[(2R,3S,4R,5R,6S)-4,5,6-trihydroxy-2-(hydroxymethyl)oxan-3-yl]oxyoxane-3,4,5-triol

> <PUBCHEM_IUPAC_SYSTEMATIC_NAME>
(2R,3R,4S,5R,6S)-2-(hydroxymethyl)-6-[(2R,3S,4R,5R,6S)-2-(hydroxymethyl)-4,5,6-tris(oxidanyl)oxan-3-yl]oxy-oxane-3,4,5-triol

> <PUBCHEM_IUPAC_TRADITIONAL_NAME>
(2R,3R,4S,5R,6S)-2-methylol-6-[(2R,3S,4R,5R,6S)-4,5,6-trihydroxy-2-methylol-tetrahydropyran-3-yl]oxy-tetrahydropyran-3,4,5-triol

> <PUBCHEM_IUPAC_INCHI>
InChI=1S/C12H22O11/c13-1-3-5(15)6(16)9(19)12(22-3)23-10-4(2-14)21-11(20)8(18)7(10)17/h3-20H,1-2H2/t3-,4-,5+,6+,7-,8-,9-,10-,11+,12+/m1/s1

> <PUBCHEM_IUPAC_INCHIKEY>
GUBGYTABKSRVRQ-XLOQQCSPSA-N

> <PUBCHEM_XLOGP3_AA>
-4.7

> <PUBCHEM_EXACT_MASS>
342.116212

> <PUBCHEM_MOLECULAR_FORMULA>
C12H22O11

> <PUBCHEM_MOLECULAR_WEIGHT>
342.29648

> <PUBCHEM_OPENEYE_CAN_SMILES>
C(C1C(C(C(C(O1)OC2C(OC(C(C2O)O)O)CO)O)O)O)O

> <PUBCHEM_OPENEYE_ISO_SMILES>
C([C@@H]1[C@@H]([C@@H]([C@H]([C@@H](O1)O[C@@H]2[C@H](O[C@@H]([C@@H]([C@H]2O)O)O)CO)O)O)O)O

> <PUBCHEM_CACTVS_TPSA>
190

> <PUBCHEM_MONOISOTOPIC_WEIGHT>
342.116212

> <PUBCHEM_TOTAL_CHARGE>
0

> <PUBCHEM_HEAVY_ATOM_COUNT>
23

> <PUBCHEM_ATOM_DEF_STEREO_COUNT>
10

> <PUBCHEM_ATOM_UDEF_STEREO_COUNT>
0

> <PUBCHEM_BOND_DEF_STEREO_COUNT>
0

> <PUBCHEM_BOND_UDEF_STEREO_COUNT>
0

> <PUBCHEM_ISOTOPIC_ATOM_COUNT>
0

> <PUBCHEM_COMPONENT_COUNT>
1

> <PUBCHEM_CACTVS_TAUTO_COUNT>
1

> <PUBCHEM_COORDINATE_TYPE>
1
5
255

> <PUBCHEM_BONDANNOTATIONS>
12  1  6
13  1  5
16  22  5
19  23  5
14  4  5
15  5  6
17  6  5
18  7  5
20  8  6
21  9  6

$$$$
"Beta-Methyl-D-glucoside_CID_445238"
  -OEChem-03271612222D

 27 27  0     1  0  0  0  0  0999 V2000
    4.2690    1.0000    0.0000 O   0  0  0  0  0  0  0  0  0  0  0  0
    6.0010   -1.0000    0.0000 O   0  0  0  0  0  0  0  0  0  0  0  0
    4.2690   -2.0000    0.0000 O   0  0  0  0  0  0  0  0  0  0  0  0
    2.5369   -1.0000    0.0000 O   0  0  0  0  0  0  0  0  0  0  0  0
    2.5369    1.0000    0.0000 O   0  0  0  0  0  0  0  0  0  0  0  0
    6.0010    2.0000    0.0000 O   0  0  0  0  0  0  0  0  0  0  0  0
    5.1350   -0.5000    0.0000 C   0  0  1  0  0  0  0  0  0  0  0  0
    4.2690   -1.0000    0.0000 C   0  0  1  0  0  0  0  0  0  0  0  0
    5.1350    0.5000    0.0000 C   0  0  1  0  0  0  0  0  0  0  0  0
    3.4030   -0.5000    0.0000 C   0  0  2  0  0  0  0  0  0  0  0  0
    3.4030    0.5000    0.0000 C   0  0  1  0  0  0  0  0  0  0  0  0
    6.0010    1.0000    0.0000 C   0  0  0  0  0  0  0  0  0  0  0  0
    2.5369    2.0000    0.0000 C   0  0  0  0  0  0  0  0  0  0  0  0
    5.1350   -1.1200    0.0000 H   0  0  0  0  0  0  0  0  0  0  0  0
    4.8059   -1.3100    0.0000 H   0  0  0  0  0  0  0  0  0  0  0  0
    5.1350    1.1200    0.0000 H   0  0  0  0  0  0  0  0  0  0  0  0
    3.4030   -1.1200    0.0000 H   0  0  0  0  0  0  0  0  0  0  0  0
    3.4030    1.1200    0.0000 H   0  0  0  0  0  0  0  0  0  0  0  0
    6.2131    0.4174    0.0000 H   0  0  0  0  0  0  0  0  0  0  0  0
    6.6116    1.1077    0.0000 H   0  0  0  0  0  0  0  0  0  0  0  0
    6.5380   -0.6900    0.0000 H   0  0  0  0  0  0  0  0  0  0  0  0
    3.7320   -2.3100    0.0000 H   0  0  0  0  0  0  0  0  0  0  0  0
    2.0000   -0.6900    0.0000 H   0  0  0  0  0  0  0  0  0  0  0  0
    6.5380    2.3100    0.0000 H   0  0  0  0  0  0  0  0  0  0  0  0
    3.1569    2.0000    0.0000 H   0  0  0  0  0  0  0  0  0  0  0  0
    2.5369    2.6200    0.0000 H   0  0  0  0  0  0  0  0  0  0  0  0
    1.9169    2.0000    0.0000 H   0  0  0  0  0  0  0  0  0  0  0  0
  1  9  1  0  0  0  0
  1 11  1  0  0  0  0
  7  2  1  1  0  0  0
  2 21  1  0  0  0  0
  8  3  1  6  0  0  0
  3 22  1  0  0  0  0
 10  4  1  1  0  0  0
  4 23  1  0  0  0  0
 11  5  1  6  0  0  0
  5 13  1  0  0  0  0
  6 12  1  0  0  0  0
  6 24  1  0  0  0  0
  7  8  1  0  0  0  0
  7  9  1  0  0  0  0
  7 14  1  0  0  0  0
  8 10  1  0  0  0  0
  8 15  1  0  0  0  0
  9 12  1  6  0  0  0
  9 16  1  0  0  0  0
 10 11  1  0  0  0  0
 10 17  1  0  0  0  0
 11 18  1  0  0  0  0
 12 19  1  0  0  0  0
 12 20  1  0  0  0  0
 13 25  1  0  0  0  0
 13 26  1  0  0  0  0
 13 27  1  0  0  0  0
M  END
> <PUBCHEM_COMPOUND_CID>
445238

> <PUBCHEM_COMPOUND_CANONICALIZED>
1

> <PUBCHEM_CACTVS_COMPLEXITY>
163

> <PUBCHEM_CACTVS_HBOND_ACCEPTOR>
6

> <PUBCHEM_CACTVS_HBOND_DONOR>
4

> <PUBCHEM_CACTVS_ROTATABLE_BOND>
2

> <PUBCHEM_CACTVS_SUBSKEYS>
AAADccBgOAAAAAAAAAAAAAAAAAAAAAAAAAAkAAAAAAAAAAAAAAAAGgAACAAACBSwgAMCCAAABgAAAAAAAAAAAAAAAAAAAAAAAAAREAIAAAAiQAAFAAAHAAHAYAwAAAAAAAAAAAAAAAAAAAAAAAAAAAAAAA==

> <PUBCHEM_IUPAC_OPENEYE_NAME>
(2R,3S,4S,5R,6R)-2-(hydroxymethyl)-6-methoxy-tetrahydropyran-3,4,5-triol

> <PUBCHEM_IUPAC_CAS_NAME>
(2R,3S,4S,5R,6R)-2-(hydroxymethyl)-6-methoxyoxane-3,4,5-triol

> <PUBCHEM_IUPAC_NAME>
(2R,3S,4S,5R,6R)-2-(hydroxymethyl)-6-methoxyoxane-3,4,5-triol

> <PUBCHEM_IUPAC_SYSTEMATIC_NAME>
(2R,3S,4S,5R,6R)-2-(hydroxymethyl)-6-methoxy-oxane-3,4,5-triol

> <PUBCHEM_IUPAC_TRADITIONAL_NAME>
(2R,3R,4S,5S,6R)-2-methoxy-6-methylol-tetrahydropyran-3,4,5-triol

> <PUBCHEM_IUPAC_INCHI>
InChI=1S/C7H14O6/c1-12-7-6(11)5(10)4(9)3(2-8)13-7/h3-11H,2H2,1H3/t3-,4-,5+,6-,7-/m1/s1

> <PUBCHEM_IUPAC_INCHIKEY>
HOVAGTYPODGVJG-XUUWZHRGSA-N

> <PUBCHEM_XLOGP3>
-2.2

> <PUBCHEM_EXACT_MASS>
194.079038

> <PUBCHEM_MOLECULAR_FORMULA>
C7H14O6

> <PUBCHEM_MOLECULAR_WEIGHT>
194.18246

> <PUBCHEM_OPENEYE_CAN_SMILES>
COC1C(C(C(C(O1)CO)O)O)O

> <PUBCHEM_OPENEYE_ISO_SMILES>
CO[C@H]1[C@@H]([C@H]([C@@H]([C@H](O1)CO)O)O)O

> <PUBCHEM_CACTVS_TPSA>
99.4

> <PUBCHEM_MONOISOTOPIC_WEIGHT>
194.079038

> <PUBCHEM_TOTAL_CHARGE>
0

> <PUBCHEM_HEAVY_ATOM_COUNT>
13

> <PUBCHEM_ATOM_DEF_STEREO_COUNT>
5

> <PUBCHEM_ATOM_UDEF_STEREO_COUNT>
0

> <PUBCHEM_BOND_DEF_STEREO_COUNT>
0

> <PUBCHEM_BOND_UDEF_STEREO_COUNT>
0

> <PUBCHEM_ISOTOPIC_ATOM_COUNT>
0

> <PUBCHEM_COMPONENT_COUNT>
1

> <PUBCHEM_CACTVS_TAUTO_COUNT>
1

> <PUBCHEM_COORDINATE_TYPE>
1
5
255

> <PUBCHEM_BONDANNOTATIONS>
7  2  5
8  3  6
10  4  5
11  5  6
9  12  6

$$$$
"D-Xylose_CID_135191"
  -OEChem-03271612242D

 20 20  0     1  0  0  0  0  0999 V2000
    5.1350   -0.8450    0.0000 O   0  0  0  0  0  0  0  0  0  0  0  0
    2.5369    0.6550    0.0000 O   0  0  0  0  0  0  0  0  0  0  0  0
    4.2690    1.6550    0.0000 O   0  0  0  0  0  0  0  0  0  0  0  0
    2.5369   -1.3450    0.0000 O   0  0  0  0  0  0  0  0  0  0  0  0
    6.0010    0.6550    0.0000 O   0  0  0  0  0  0  0  0  0  0  0  0
    3.4030    0.1550    0.0000 C   0  0  2  0  0  0  0  0  0  0  0  0
    4.2690    0.6550    0.0000 C   0  0  2  0  0  0  0  0  0  0  0  0
    3.4030   -0.8450    0.0000 C   0  0  1  0  0  0  0  0  0  0  0  0
    5.1350    0.1550    0.0000 C   0  0  3  0  0  0  0  0  0  0  0  0
    4.2690   -1.3450    0.0000 C   0  0  0  0  0  0  0  0  0  0  0  0
    3.4030    0.7750    0.0000 H   0  0  0  0  0  0  0  0  0  0  0  0
    4.8059    0.9650    0.0000 H   0  0  0  0  0  0  0  0  0  0  0  0
    3.4030   -1.4650    0.0000 H   0  0  0  0  0  0  0  0  0  0  0  0
    5.1350    0.7750    0.0000 H   0  0  0  0  0  0  0  0  0  0  0  0
    3.8705   -1.8200    0.0000 H   0  0  0  0  0  0  0  0  0  0  0  0
    4.6675   -1.8200    0.0000 H   0  0  0  0  0  0  0  0  0  0  0  0
    2.0000    0.3450    0.0000 H   0  0  0  0  0  0  0  0  0  0  0  0
    4.8059    1.9650    0.0000 H   0  0  0  0  0  0  0  0  0  0  0  0
    2.5369   -1.9650    0.0000 H   0  0  0  0  0  0  0  0  0  0  0  0
    6.5380    0.3450    0.0000 H   0  0  0  0  0  0  0  0  0  0  0  0
  1  9  1  0  0  0  0
  1 10  1  0  0  0  0
  6  2  1  6  0  0  0
  2 17  1  0  0  0  0
  7  3  1  1  0  0  0
  3 18  1  0  0  0  0
  8  4  1  1  0  0  0
  4 19  1  0  0  0  0
  5  9  1  0  0  0  0
  5 20  1  0  0  0  0
  6  7  1  0  0  0  0
  6  8  1  0  0  0  0
  6 11  1  0  0  0  0
  7  9  1  0  0  0  0
  7 12  1  0  0  0  0
  8 10  1  0  0  0  0
  8 13  1  0  0  0  0
  9 14  1  0  0  0  0
 10 15  1  0  0  0  0
 10 16  1  0  0  0  0
M  END
> <PUBCHEM_COMPOUND_CID>
135191

> <PUBCHEM_COMPOUND_CANONICALIZED>
1

> <PUBCHEM_CACTVS_COMPLEXITY>
117

> <PUBCHEM_CACTVS_HBOND_ACCEPTOR>
5

> <PUBCHEM_CACTVS_HBOND_DONOR>
4

> <PUBCHEM_CACTVS_ROTATABLE_BOND>
0

> <PUBCHEM_CACTVS_SUBSKEYS>
AAADccBgOAAAAAAAAAAAAAAAAAAAAAAAAAAkAAAAAAAAAAAAAAAAGgAACAAACBSwgAMACAAABgAAAAAAAAAAAAAAAAAAAAAAAAAREAIAAAACQAAFAAAHAADAIAAAAAAAAAAAAAAAAAAAAAAAAAAAAAAAAA==

> <PUBCHEM_IUPAC_OPENEYE_NAME>
(3R,4S,5R)-tetrahydropyran-2,3,4,5-tetrol

> <PUBCHEM_IUPAC_CAS_NAME>
(3R,4S,5R)-oxane-2,3,4,5-tetrol

> <PUBCHEM_IUPAC_NAME>
(3R,4S,5R)-oxane-2,3,4,5-tetrol

> <PUBCHEM_IUPAC_SYSTEMATIC_NAME>
(3R,4S,5R)-oxane-2,3,4,5-tetrol

> <PUBCHEM_IUPAC_TRADITIONAL_NAME>
(3R,4S,5R)-tetrahydropyran-2,3,4,5-tetrol

> <PUBCHEM_IUPAC_INCHI>
InChI=1S/C5H10O5/c6-2-1-10-5(9)4(8)3(2)7/h2-9H,1H2/t2-,3+,4-,5?/m1/s1

> <PUBCHEM_IUPAC_INCHIKEY>
SRBFZHDQGSBBOR-IOVATXLUSA-N

> <PUBCHEM_XLOGP3_AA>
-2.5

> <PUBCHEM_EXACT_MASS>
150.052823

> <PUBCHEM_MOLECULAR_FORMULA>
C5H10O5

> <PUBCHEM_MOLECULAR_WEIGHT>
150.1299

> <PUBCHEM_OPENEYE_CAN_SMILES>
C1C(C(C(C(O1)O)O)O)O

> <PUBCHEM_OPENEYE_ISO_SMILES>
C1[C@H]([C@@H]([C@H](C(O1)O)O)O)O

> <PUBCHEM_CACTVS_TPSA>
90.2

> <PUBCHEM_MONOISOTOPIC_WEIGHT>
150.052823

> <PUBCHEM_TOTAL_CHARGE>
0

> <PUBCHEM_HEAVY_ATOM_COUNT>
10

> <PUBCHEM_ATOM_DEF_STEREO_COUNT>
3

> <PUBCHEM_ATOM_UDEF_STEREO_COUNT>
1

> <PUBCHEM_BOND_DEF_STEREO_COUNT>
0

> <PUBCHEM_BOND_UDEF_STEREO_COUNT>
0

> <PUBCHEM_ISOTOPIC_ATOM_COUNT>
0

> <PUBCHEM_COMPONENT_COUNT>
1

> <PUBCHEM_CACTVS_TAUTO_COUNT>
1

> <PUBCHEM_COORDINATE_TYPE>
1
5
255

> <PUBCHEM_BONDANNOTATIONS>
6  2  6
7  3  5
8  4  5
9  5  3

$$$$
"i-Erythritol_CID_222285"
  -OEChem-03271612312D

 18 17  0     1  0  0  0  0  0999 V2000
    4.2690   -1.2500    0.0000 O   0  0  0  0  0  0  0  0  0  0  0  0
    5.1350    1.2500    0.0000 O   0  0  0  0  0  0  0  0  0  0  0  0
    2.5369   -0.2500    0.0000 O   0  0  0  0  0  0  0  0  0  0  0  0
    6.8671    0.2500    0.0000 O   0  0  0  0  0  0  0  0  0  0  0  0
    4.2690   -0.2500    0.0000 C   0  0  2  0  0  0  0  0  0  0  0  0
    5.1350    0.2500    0.0000 C   0  0  1  0  0  0  0  0  0  0  0  0
    3.4030    0.2500    0.0000 C   0  0  0  0  0  0  0  0  0  0  0  0
    6.0010   -0.2500    0.0000 C   0  0  0  0  0  0  0  0  0  0  0  0
    4.8059   -0.5600    0.0000 H   0  0  0  0  0  0  0  0  0  0  0  0
    5.6720    0.5600    0.0000 H   0  0  0  0  0  0  0  0  0  0  0  0
    3.8015    0.7249    0.0000 H   0  0  0  0  0  0  0  0  0  0  0  0
    3.0044    0.7249    0.0000 H   0  0  0  0  0  0  0  0  0  0  0  0
    5.6025   -0.7249    0.0000 H   0  0  0  0  0  0  0  0  0  0  0  0
    6.3996   -0.7249    0.0000 H   0  0  0  0  0  0  0  0  0  0  0  0
    3.7320   -1.5600    0.0000 H   0  0  0  0  0  0  0  0  0  0  0  0
    5.6720    1.5600    0.0000 H   0  0  0  0  0  0  0  0  0  0  0  0
    2.0000    0.0600    0.0000 H   0  0  0  0  0  0  0  0  0  0  0  0
    7.4040   -0.0600    0.0000 H   0  0  0  0  0  0  0  0  0  0  0  0
  5  1  1  1  0  0  0
  1 15  1  0  0  0  0
  6  2  1  6  0  0  0
  2 16  1  0  0  0  0
  3  7  1  0  0  0  0
  3 17  1  0  0  0  0
  4  8  1  0  0  0  0
  4 18  1  0  0  0  0
  5  6  1  0  0  0  0
  5  7  1  0  0  0  0
  5  9  1  0  0  0  0
  6  8  1  0  0  0  0
  6 10  1  0  0  0  0
  7 11  1  0  0  0  0
  7 12  1  0  0  0  0
  8 13  1  0  0  0  0
  8 14  1  0  0  0  0
M  END
> <PUBCHEM_COMPOUND_CID>
222285

> <PUBCHEM_COMPOUND_CANONICALIZED>
1

> <PUBCHEM_CACTVS_COMPLEXITY>
48

> <PUBCHEM_CACTVS_HBOND_ACCEPTOR>
4

> <PUBCHEM_CACTVS_HBOND_DONOR>
4

> <PUBCHEM_CACTVS_ROTATABLE_BOND>
3

> <PUBCHEM_CACTVS_SUBSKEYS>
AAADccBgOAAAAAAAAAAAAAAAAAAAAAAAAAAAAAAAAAAAAAAAAAAAGgAACAAACBSggAIAAAAAAgAAAAAAAAAAAAAAAAAAAAAAAAABEAAAAAAAQAAFAAABAABAAAAAAAAAAAAAAAAAAAAAAAAAAAAAAAAAAA==

> <PUBCHEM_IUPAC_OPENEYE_NAME>
(2S,3R)-butane-1,2,3,4-tetrol

> <PUBCHEM_IUPAC_CAS_NAME>
(2S,3R)-butane-1,2,3,4-tetrol

> <PUBCHEM_IUPAC_NAME>
(2S,3R)-butane-1,2,3,4-tetrol

> <PUBCHEM_IUPAC_SYSTEMATIC_NAME>
(2S,3R)-butane-1,2,3,4-tetrol

> <PUBCHEM_IUPAC_TRADITIONAL_NAME>
(2S,3R)-butane-1,2,3,4-tetrol

> <PUBCHEM_IUPAC_INCHI>
InChI=1S/C4H10O4/c5-1-3(7)4(8)2-6/h3-8H,1-2H2/t3-,4+

> <PUBCHEM_IUPAC_INCHIKEY>
UNXHWFMMPAWVPI-ZXZARUISSA-N

> <PUBCHEM_XLOGP3>
-2.3

> <PUBCHEM_EXACT_MASS>
122.057909

> <PUBCHEM_MOLECULAR_FORMULA>
C4H10O4

> <PUBCHEM_MOLECULAR_WEIGHT>
122.1198

> <PUBCHEM_OPENEYE_CAN_SMILES>
C(C(C(CO)O)O)O

> <PUBCHEM_OPENEYE_ISO_SMILES>
C([C@H]([C@H](CO)O)O)O

> <PUBCHEM_CACTVS_TPSA>
80.9

> <PUBCHEM_MONOISOTOPIC_WEIGHT>
122.057909

> <PUBCHEM_TOTAL_CHARGE>
0

> <PUBCHEM_HEAVY_ATOM_COUNT>
8

> <PUBCHEM_ATOM_DEF_STEREO_COUNT>
2

> <PUBCHEM_ATOM_UDEF_STEREO_COUNT>
0

> <PUBCHEM_BOND_DEF_STEREO_COUNT>
0

> <PUBCHEM_BOND_UDEF_STEREO_COUNT>
0

> <PUBCHEM_ISOTOPIC_ATOM_COUNT>
0

> <PUBCHEM_COMPONENT_COUNT>
1

> <PUBCHEM_CACTVS_TAUTO_COUNT>
1

> <PUBCHEM_COORDINATE_TYPE>
1
5
255

> <PUBCHEM_BONDANNOTATIONS>
5  1  5
6  2  6

$$$$
"D-Mannitol_CID_6251"
  -OEChem-03271621192D

 26 25  0     1  0  0  0  0  0999 V2000
    6.0010    1.2500    0.0000 O   0  0  0  0  0  0  0  0  0  0  0  0
    5.1350   -1.2500    0.0000 O   0  0  0  0  0  0  0  0  0  0  0  0
    6.8671   -1.2500    0.0000 O   0  0  0  0  0  0  0  0  0  0  0  0
    4.2690    1.2500    0.0000 O   0  0  0  0  0  0  0  0  0  0  0  0
    2.5369    0.2500    0.0000 O   0  0  0  0  0  0  0  0  0  0  0  0
    8.5991   -0.2500    0.0000 O   0  0  0  0  0  0  0  0  0  0  0  0
    5.1350   -0.2500    0.0000 C   0  0  1  0  0  0  0  0  0  0  0  0
    6.0010    0.2500    0.0000 C   0  0  1  0  0  0  0  0  0  0  0  0
    6.8671   -0.2500    0.0000 C   0  0  1  0  0  0  0  0  0  0  0  0
    4.2690    0.2500    0.0000 C   0  0  1  0  0  0  0  0  0  0  0  0
    3.4030   -0.2500    0.0000 C   0  0  0  0  0  0  0  0  0  0  0  0
    7.7331    0.2500    0.0000 C   0  0  0  0  0  0  0  0  0  0  0  0
    5.6720   -0.5600    0.0000 H   0  0  0  0  0  0  0  0  0  0  0  0
    6.5380    0.5600    0.0000 H   0  0  0  0  0  0  0  0  0  0  0  0
    4.8059    0.5600    0.0000 H   0  0  0  0  0  0  0  0  0  0  0  0
    6.3301   -0.5600    0.0000 H   0  0  0  0  0  0  0  0  0  0  0  0
    8.1316    0.7249    0.0000 H   0  0  0  0  0  0  0  0  0  0  0  0
    7.3346    0.7249    0.0000 H   0  0  0  0  0  0  0  0  0  0  0  0
    3.0044   -0.7249    0.0000 H   0  0  0  0  0  0  0  0  0  0  0  0
    3.8015   -0.7249    0.0000 H   0  0  0  0  0  0  0  0  0  0  0  0
    6.5380    1.5600    0.0000 H   0  0  0  0  0  0  0  0  0  0  0  0
    4.5981   -1.5600    0.0000 H   0  0  0  0  0  0  0  0  0  0  0  0
    7.4040   -1.5600    0.0000 H   0  0  0  0  0  0  0  0  0  0  0  0
    3.7320    1.5600    0.0000 H   0  0  0  0  0  0  0  0  0  0  0  0
    2.0000   -0.0600    0.0000 H   0  0  0  0  0  0  0  0  0  0  0  0
    9.1360    0.0600    0.0000 H   0  0  0  0  0  0  0  0  0  0  0  0
  8  1  1  6  0  0  0
  1 21  1  0  0  0  0
  7  2  1  6  0  0  0
  2 22  1  0  0  0  0
  9  3  1  1  0  0  0
  3 23  1  0  0  0  0
 10  4  1  1  0  0  0
  4 24  1  0  0  0  0
  5 11  1  0  0  0  0
  5 25  1  0  0  0  0
  6 12  1  0  0  0  0
  6 26  1  0  0  0  0
  7  8  1  0  0  0  0
  7 10  1  0  0  0  0
  7 13  1  0  0  0  0
  8  9  1  0  0  0  0
  8 14  1  0  0  0  0
  9 12  1  0  0  0  0
  9 16  1  0  0  0  0
 10 11  1  0  0  0  0
 10 15  1  0  0  0  0
 11 19  1  0  0  0  0
 11 20  1  0  0  0  0
 12 17  1  0  0  0  0
 12 18  1  0  0  0  0
M  END
> <PUBCHEM_COMPOUND_CID>
6251

> <PUBCHEM_COMPOUND_CANONICALIZED>
1

> <PUBCHEM_CACTVS_COMPLEXITY>
105

> <PUBCHEM_CACTVS_HBOND_ACCEPTOR>
6

> <PUBCHEM_CACTVS_HBOND_DONOR>
6

> <PUBCHEM_CACTVS_ROTATABLE_BOND>
5

> <PUBCHEM_CACTVS_SUBSKEYS>
AAADccBgOAAAAAAAAAAAAAAAAAAAAAAAAAAAAAAAAAAAAAAAAAAAGgAACAAACBSggAIAAAAAAgAAAAAAAAAAAAAAAAAAAAAAAAABEAIAAAAAQAAFAAABAAHAYAQAAAAAAAAAAAAAAAAAAAAAAAAAAAAAAA==

> <PUBCHEM_IUPAC_OPENEYE_NAME>
(2R,3R,4R,5R)-hexane-1,2,3,4,5,6-hexol

> <PUBCHEM_IUPAC_CAS_NAME>
(2R,3R,4R,5R)-hexane-1,2,3,4,5,6-hexol

> <PUBCHEM_IUPAC_NAME>
(2R,3R,4R,5R)-hexane-1,2,3,4,5,6-hexol

> <PUBCHEM_IUPAC_SYSTEMATIC_NAME>
(2R,3R,4R,5R)-hexane-1,2,3,4,5,6-hexol

> <PUBCHEM_IUPAC_TRADITIONAL_NAME>
(2R,3R,4R,5R)-hexane-1,2,3,4,5,6-hexol

> <PUBCHEM_IUPAC_INCHI>
InChI=1S/C6H14O6/c7-1-3(9)5(11)6(12)4(10)2-8/h3-12H,1-2H2/t3-,4-,5-,6-/m1/s1

> <PUBCHEM_IUPAC_INCHIKEY>
FBPFZTCFMRRESA-KVTDHHQDSA-N

> <PUBCHEM_XLOGP3>
-3.1

> <PUBCHEM_EXACT_MASS>
182.079038

> <PUBCHEM_MOLECULAR_FORMULA>
C6H14O6

> <PUBCHEM_MOLECULAR_WEIGHT>
182.17176

> <PUBCHEM_OPENEYE_CAN_SMILES>
C(C(C(C(C(CO)O)O)O)O)O

> <PUBCHEM_OPENEYE_ISO_SMILES>
C([C@H]([C@H]([C@@H]([C@@H](CO)O)O)O)O)O

> <PUBCHEM_CACTVS_TPSA>
121

> <PUBCHEM_MONOISOTOPIC_WEIGHT>
182.079038

> <PUBCHEM_TOTAL_CHARGE>
0

> <PUBCHEM_HEAVY_ATOM_COUNT>
12

> <PUBCHEM_ATOM_DEF_STEREO_COUNT>
4

> <PUBCHEM_ATOM_UDEF_STEREO_COUNT>
0

> <PUBCHEM_BOND_DEF_STEREO_COUNT>
0

> <PUBCHEM_BOND_UDEF_STEREO_COUNT>
0

> <PUBCHEM_ISOTOPIC_ATOM_COUNT>
0

> <PUBCHEM_COMPONENT_COUNT>
1

> <PUBCHEM_CACTVS_TAUTO_COUNT>
1

> <PUBCHEM_COORDINATE_TYPE>
1
5
255

> <PUBCHEM_BONDANNOTATIONS>
8  1  6
7  2  6
9  3  5
10  4  5

$$$$
"N-Acetyl-D-Glucosamine_CID_439174"
  -OEChem-03271621212D

 30 30  0     1  0  0  0  0  0999 V2000
    5.1350   -0.6900    0.0000 O   0  0  0  0  0  0  0  0  0  0  0  0
    2.5369    0.8100    0.0000 O   0  0  0  0  0  0  0  0  0  0  0  0
    2.5369   -1.1900    0.0000 O   0  0  0  0  0  0  0  0  0  0  0  0
    6.0010    0.8100    0.0000 O   0  0  0  0  0  0  0  0  0  0  0  0
    5.1350   -2.6900    0.0000 O   0  0  0  0  0  0  0  0  0  0  0  0
    6.0010    1.8100    0.0000 O   0  0  0  0  0  0  0  0  0  0  0  0
    4.2690    1.8100    0.0000 N   0  0  0  0  0  0  0  0  0  0  0  0
    3.4030    0.3100    0.0000 C   0  0  2  0  0  0  0  0  0  0  0  0
    4.2690    0.8100    0.0000 C   0  0  2  0  0  0  0  0  0  0  0  0
    3.4030   -0.6900    0.0000 C   0  0  1  0  0  0  0  0  0  0  0  0
    4.2690   -1.1900    0.0000 C   0  0  1  0  0  0  0  0  0  0  0  0
    5.1350    0.3100    0.0000 C   0  0  3  0  0  0  0  0  0  0  0  0
    4.2690   -2.1900    0.0000 C   0  0  0  0  0  0  0  0  0  0  0  0
    5.1350    2.3100    0.0000 C   0  0  0  0  0  0  0  0  0  0  0  0
    5.1350    3.3100    0.0000 C   0  0  0  0  0  0  0  0  0  0  0  0
    3.4030    0.9300    0.0000 H   0  0  0  0  0  0  0  0  0  0  0  0
    4.8059    1.1200    0.0000 H   0  0  0  0  0  0  0  0  0  0  0  0
    2.8660   -0.3800    0.0000 H   0  0  0  0  0  0  0  0  0  0  0  0
    4.8059   -1.5000    0.0000 H   0  0  0  0  0  0  0  0  0  0  0  0
    5.1350    0.9300    0.0000 H   0  0  0  0  0  0  0  0  0  0  0  0
    3.6584   -2.0823    0.0000 H   0  0  0  0  0  0  0  0  0  0  0  0
    4.0569   -2.7726    0.0000 H   0  0  0  0  0  0  0  0  0  0  0  0
    3.7320    2.1200    0.0000 H   0  0  0  0  0  0  0  0  0  0  0  0
    2.0000    0.5000    0.0000 H   0  0  0  0  0  0  0  0  0  0  0  0
    2.5369   -1.8100    0.0000 H   0  0  0  0  0  0  0  0  0  0  0  0
    6.5380    0.5000    0.0000 H   0  0  0  0  0  0  0  0  0  0  0  0
    5.1350   -3.3100    0.0000 H   0  0  0  0  0  0  0  0  0  0  0  0
    5.7550    3.3100    0.0000 H   0  0  0  0  0  0  0  0  0  0  0  0
    5.1350    3.9300    0.0000 H   0  0  0  0  0  0  0  0  0  0  0  0
    4.5150    3.3100    0.0000 H   0  0  0  0  0  0  0  0  0  0  0  0
  1 11  1  0  0  0  0
  1 12  1  0  0  0  0
  8  2  1  6  0  0  0
  2 24  1  0  0  0  0
 10  3  1  1  0  0  0
  3 25  1  0  0  0  0
  4 12  1  0  0  0  0
  4 26  1  0  0  0  0
  5 13  1  0  0  0  0
  5 27  1  0  0  0  0
  6 14  2  0  0  0  0
  9  7  1  1  0  0  0
  7 14  1  0  0  0  0
  7 23  1  0  0  0  0
  8  9  1  0  0  0  0
  8 10  1  0  0  0  0
  8 16  1  0  0  0  0
  9 12  1  0  0  0  0
  9 17  1  0  0  0  0
 10 11  1  0  0  0  0
 10 18  1  0  0  0  0
 11 13  1  6  0  0  0
 11 19  1  0  0  0  0
 12 20  1  0  0  0  0
 13 21  1  0  0  0  0
 13 22  1  0  0  0  0
 14 15  1  0  0  0  0
 15 28  1  0  0  0  0
 15 29  1  0  0  0  0
 15 30  1  0  0  0  0
M  END
> <PUBCHEM_COMPOUND_CID>
439174

> <PUBCHEM_COMPOUND_CANONICALIZED>
1

> <PUBCHEM_CACTVS_COMPLEXITY>
235

> <PUBCHEM_CACTVS_HBOND_ACCEPTOR>
6

> <PUBCHEM_CACTVS_HBOND_DONOR>
5

> <PUBCHEM_CACTVS_ROTATABLE_BOND>
2

> <PUBCHEM_CACTVS_SUBSKEYS>
AAADccByOAAAAAAAAAAAAAAAAAAAAAAAAAAkAAAAAAAAAAAAAAAAHgAQCAAACDzxgAcCCALABgAIAAEQEAAAAAAAAAAAAIAIAAATEAIAgAAHQAAHFgCXAAHwcAcAAAAAAAAAAAAAAAAAAAAAAAAAAAAAAA==

> <PUBCHEM_IUPAC_OPENEYE_NAME>
N-[(3R,4R,5S,6R)-2,4,5-trihydroxy-6-(hydroxymethyl)tetrahydropyran-3-yl]acetamide

> <PUBCHEM_IUPAC_CAS_NAME>
N-[(3R,4R,5S,6R)-2,4,5-trihydroxy-6-(hydroxymethyl)-3-oxanyl]acetamide

> <PUBCHEM_IUPAC_NAME>
N-[(3R,4R,5S,6R)-2,4,5-trihydroxy-6-(hydroxymethyl)oxan-3-yl]acetamide

> <PUBCHEM_IUPAC_SYSTEMATIC_NAME>
N-[(3R,4R,5S,6R)-6-(hydroxymethyl)-2,4,5-tris(oxidanyl)oxan-3-yl]ethanamide

> <PUBCHEM_IUPAC_TRADITIONAL_NAME>
N-[(3R,4R,5S,6R)-2,4,5-trihydroxy-6-methylol-tetrahydropyran-3-yl]acetamide

> <PUBCHEM_IUPAC_INCHI>
InChI=1S/C8H15NO6/c1-3(11)9-5-7(13)6(12)4(2-10)15-8(5)14/h4-8,10,12-14H,2H2,1H3,(H,9,11)/t4-,5-,6-,7-,8?/m1/s1

> <PUBCHEM_IUPAC_INCHIKEY>
OVRNDRQMDRJTHS-RTRLPJTCSA-N

> <PUBCHEM_XLOGP3>
-1.7

> <PUBCHEM_EXACT_MASS>
221.089937

> <PUBCHEM_MOLECULAR_FORMULA>
C8H15NO6

> <PUBCHEM_MOLECULAR_WEIGHT>
221.2078

> <PUBCHEM_OPENEYE_CAN_SMILES>
CC(=O)NC1C(C(C(OC1O)CO)O)O

> <PUBCHEM_OPENEYE_ISO_SMILES>
CC(=O)N[C@@H]1[C@H]([C@@H]([C@H](OC1O)CO)O)O

> <PUBCHEM_CACTVS_TPSA>
119

> <PUBCHEM_MONOISOTOPIC_WEIGHT>
221.089937

> <PUBCHEM_TOTAL_CHARGE>
0

> <PUBCHEM_HEAVY_ATOM_COUNT>
15

> <PUBCHEM_ATOM_DEF_STEREO_COUNT>
4

> <PUBCHEM_ATOM_UDEF_STEREO_COUNT>
1

> <PUBCHEM_BOND_DEF_STEREO_COUNT>
0

> <PUBCHEM_BOND_UDEF_STEREO_COUNT>
0

> <PUBCHEM_ISOTOPIC_ATOM_COUNT>
0

> <PUBCHEM_COMPONENT_COUNT>
1

> <PUBCHEM_CACTVS_TAUTO_COUNT>
2

> <PUBCHEM_COORDINATE_TYPE>
1
5
255

> <PUBCHEM_BONDANNOTATIONS>
11  13  6
8  2  6
10  3  5
12  4  3
9  7  5

$$$$
"D-Glucosaminic_Acid_CID_73563"
  -OEChem-03271621352D

 26 25  0     1  0  0  0  0  0999 V2000
    5.1350    1.2500    0.0000 O   0  0  0  0  0  0  0  0  0  0  0  0
    6.0010   -1.2500    0.0000 O   0  0  0  0  0  0  0  0  0  0  0  0
    4.2690   -1.2500    0.0000 O   0  0  0  0  0  0  0  0  0  0  0  0
    2.5369   -0.2500    0.0000 O   0  0  0  0  0  0  0  0  0  0  0  0
    8.5991    0.2500    0.0000 O   0  0  0  0  0  0  0  0  0  0  0  0
    7.7331   -1.2500    0.0000 O   0  0  0  0  0  0  0  0  0  0  0  0
    6.8671    1.2500    0.0000 N   0  0  0  0  0  0  0  0  0  0  0  0
    5.1350    0.2500    0.0000 C   0  0  1  0  0  0  0  0  0  0  0  0
    6.0010   -0.2500    0.0000 C   0  0  1  0  0  0  0  0  0  0  0  0
    4.2690   -0.2500    0.0000 C   0  0  1  0  0  0  0  0  0  0  0  0
    6.8671    0.2500    0.0000 C   0  0  2  0  0  0  0  0  0  0  0  0
    3.4030    0.2500    0.0000 C   0  0  0  0  0  0  0  0  0  0  0  0
    7.7331   -0.2500    0.0000 C   0  0  0  0  0  0  0  0  0  0  0  0
    5.6720    0.5600    0.0000 H   0  0  0  0  0  0  0  0  0  0  0  0
    6.5380   -0.5600    0.0000 H   0  0  0  0  0  0  0  0  0  0  0  0
    4.8059   -0.5600    0.0000 H   0  0  0  0  0  0  0  0  0  0  0  0
    6.3301    0.5600    0.0000 H   0  0  0  0  0  0  0  0  0  0  0  0
    3.8015    0.7249    0.0000 H   0  0  0  0  0  0  0  0  0  0  0  0
    3.0044    0.7249    0.0000 H   0  0  0  0  0  0  0  0  0  0  0  0
    4.5981    1.5600    0.0000 H   0  0  0  0  0  0  0  0  0  0  0  0
    5.4641   -1.5600    0.0000 H   0  0  0  0  0  0  0  0  0  0  0  0
    7.4040    1.5600    0.0000 H   0  0  0  0  0  0  0  0  0  0  0  0
    6.3301    1.5600    0.0000 H   0  0  0  0  0  0  0  0  0  0  0  0
    3.7320   -1.5600    0.0000 H   0  0  0  0  0  0  0  0  0  0  0  0
    2.0000    0.0600    0.0000 H   0  0  0  0  0  0  0  0  0  0  0  0
    9.1360   -0.0600    0.0000 H   0  0  0  0  0  0  0  0  0  0  0  0
  8  1  1  1  0  0  0
  1 20  1  0  0  0  0
  9  2  1  1  0  0  0
  2 21  1  0  0  0  0
 10  3  1  6  0  0  0
  3 24  1  0  0  0  0
  4 12  1  0  0  0  0
  4 25  1  0  0  0  0
  5 13  1  0  0  0  0
  5 26  1  0  0  0  0
  6 13  2  0  0  0  0
 11  7  1  1  0  0  0
  7 22  1  0  0  0  0
  7 23  1  0  0  0  0
  8  9  1  0  0  0  0
  8 10  1  0  0  0  0
  8 14  1  0  0  0  0
  9 11  1  0  0  0  0
  9 15  1  0  0  0  0
 10 12  1  0  0  0  0
 10 16  1  0  0  0  0
 11 13  1  0  0  0  0
 11 17  1  0  0  0  0
 12 18  1  0  0  0  0
 12 19  1  0  0  0  0
M  END
> <PUBCHEM_COMPOUND_CID>
73563

> <PUBCHEM_COMPOUND_CANONICALIZED>
1

> <PUBCHEM_CACTVS_COMPLEXITY>
175

> <PUBCHEM_CACTVS_HBOND_ACCEPTOR>
7

> <PUBCHEM_CACTVS_HBOND_DONOR>
6

> <PUBCHEM_CACTVS_ROTATABLE_BOND>
5

> <PUBCHEM_CACTVS_SUBSKEYS>
AAADccBiOAAAAAAAAAAAAAAAAAAAAAAAAAAAAAAAAAAAAAAAAAAAHgAQCAAACDzhgAYACABAAgAIAACQCAAAAAAAAAAAAIGAAAADEBYAgAAAQAAHMAABAAH6fAVAAAAAAAAAAAAAAAAAAAAAAAAAAAAAAA==

> <PUBCHEM_IUPAC_OPENEYE_NAME>
(2R,3R,4S,5R)-2-amino-3,4,5,6-tetrahydroxy-hexanoic acid

> <PUBCHEM_IUPAC_CAS_NAME>
(2R,3R,4S,5R)-2-amino-3,4,5,6-tetrahydroxyhexanoic acid

> <PUBCHEM_IUPAC_NAME>
(2R,3R,4S,5R)-2-amino-3,4,5,6-tetrahydroxyhexanoic acid

> <PUBCHEM_IUPAC_SYSTEMATIC_NAME>
(2R,3R,4S,5R)-2-azanyl-3,4,5,6-tetrakis(oxidanyl)hexanoic acid

> <PUBCHEM_IUPAC_TRADITIONAL_NAME>
(2R,3R,4S,5R)-2-amino-3,4,5,6-tetrahydroxy-hexanoic acid

> <PUBCHEM_IUPAC_INCHI>
InChI=1S/C6H13NO6/c7-3(6(12)13)5(11)4(10)2(9)1-8/h2-5,8-11H,1,7H2,(H,12,13)/t2-,3-,4-,5-/m1/s1

> <PUBCHEM_IUPAC_INCHIKEY>
UFYKDFXCZBTLOO-TXICZTDVSA-N

> <PUBCHEM_XLOGP3_AA>
-5.9

> <PUBCHEM_EXACT_MASS>
195.074287

> <PUBCHEM_MOLECULAR_FORMULA>
C6H13NO6

> <PUBCHEM_MOLECULAR_WEIGHT>
195.17052

> <PUBCHEM_OPENEYE_CAN_SMILES>
C(C(C(C(C(C(=O)O)N)O)O)O)O

> <PUBCHEM_OPENEYE_ISO_SMILES>
C([C@H]([C@H]([C@@H]([C@H](C(=O)O)N)O)O)O)O

> <PUBCHEM_CACTVS_TPSA>
144

> <PUBCHEM_MONOISOTOPIC_WEIGHT>
195.074287

> <PUBCHEM_TOTAL_CHARGE>
0

> <PUBCHEM_HEAVY_ATOM_COUNT>
13

> <PUBCHEM_ATOM_DEF_STEREO_COUNT>
4

> <PUBCHEM_ATOM_UDEF_STEREO_COUNT>
0

> <PUBCHEM_BOND_DEF_STEREO_COUNT>
0

> <PUBCHEM_BOND_UDEF_STEREO_COUNT>
0

> <PUBCHEM_ISOTOPIC_ATOM_COUNT>
0

> <PUBCHEM_COMPONENT_COUNT>
1

> <PUBCHEM_CACTVS_TAUTO_COUNT>
1

> <PUBCHEM_COORDINATE_TYPE>
1
5
255

> <PUBCHEM_BONDANNOTATIONS>
8  1  5
9  2  5
10  3  6
11  7  5

$$$$
"Glucose-1-Phosphate_CID_65533"
  -OEChem-03271621292D

 29 29  0     1  0  0  0  0  0999 V2000
    6.0010    1.5000    0.0000 P   0  0  0  0  0  0  0  0  0  0  0  0
    4.2690    0.5000    0.0000 O   0  0  0  0  0  0  0  0  0  0  0  0
    4.2690   -2.5000    0.0000 O   0  0  0  0  0  0  0  0  0  0  0  0
    6.0010    0.5000    0.0000 O   0  0  0  0  0  0  0  0  0  0  0  0
    2.5369   -1.5000    0.0000 O   0  0  0  0  0  0  0  0  0  0  0  0
    6.0010   -1.5000    0.0000 O   0  0  0  0  0  0  0  0  0  0  0  0
    2.5369    1.5000    0.0000 O   0  0  0  0  0  0  0  0  0  0  0  0
    6.0010    2.5000    0.0000 O   0  0  0  0  0  0  0  0  0  0  0  0
    7.0010    1.5000    0.0000 O   0  0  0  0  0  0  0  0  0  0  0  0
    5.0010    1.5000    0.0000 O   0  0  0  0  0  0  0  0  0  0  0  0
    4.2690   -1.5000    0.0000 C   0  0  1  0  0  0  0  0  0  0  0  0
    3.4030   -1.0000    0.0000 C   0  0  1  0  0  0  0  0  0  0  0  0
    5.1350   -1.0000    0.0000 C   0  0  2  0  0  0  0  0  0  0  0  0
    3.4030    0.0000    0.0000 C   0  0  1  0  0  0  0  0  0  0  0  0
    5.1350    0.0000    0.0000 C   0  0  2  0  0  0  0  0  0  0  0  0
    2.5369    0.5000    0.0000 C   0  0  0  0  0  0  0  0  0  0  0  0
    4.8059   -1.8100    0.0000 H   0  0  0  0  0  0  0  0  0  0  0  0
    3.4030   -1.6200    0.0000 H   0  0  0  0  0  0  0  0  0  0  0  0
    5.1350   -1.6200    0.0000 H   0  0  0  0  0  0  0  0  0  0  0  0
    3.4030    0.6200    0.0000 H   0  0  0  0  0  0  0  0  0  0  0  0
    5.1350    0.6200    0.0000 H   0  0  0  0  0  0  0  0  0  0  0  0
    1.9264    0.6077    0.0000 H   0  0  0  0  0  0  0  0  0  0  0  0
    2.3249   -0.0826    0.0000 H   0  0  0  0  0  0  0  0  0  0  0  0
    3.7320   -2.8100    0.0000 H   0  0  0  0  0  0  0  0  0  0  0  0
    2.0000   -1.1900    0.0000 H   0  0  0  0  0  0  0  0  0  0  0  0
    6.0010   -2.1200    0.0000 H   0  0  0  0  0  0  0  0  0  0  0  0
    2.0000    1.8100    0.0000 H   0  0  0  0  0  0  0  0  0  0  0  0
    6.5380    2.8100    0.0000 H   0  0  0  0  0  0  0  0  0  0  0  0
    7.3110    0.9631    0.0000 H   0  0  0  0  0  0  0  0  0  0  0  0
  1  4  1  0  0  0  0
  1  8  1  0  0  0  0
  1  9  1  0  0  0  0
  1 10  2  0  0  0  0
  2 14  1  0  0  0  0
  2 15  1  0  0  0  0
 11  3  1  1  0  0  0
  3 24  1  0  0  0  0
 15  4  1  6  0  0  0
 12  5  1  6  0  0  0
  5 25  1  0  0  0  0
 13  6  1  6  0  0  0
  6 26  1  0  0  0  0
  7 16  1  0  0  0  0
  7 27  1  0  0  0  0
  8 28  1  0  0  0  0
  9 29  1  0  0  0  0
 11 12  1  0  0  0  0
 11 13  1  0  0  0  0
 11 17  1  0  0  0  0
 12 14  1  0  0  0  0
 12 18  1  0  0  0  0
 13 15  1  0  0  0  0
 13 19  1  0  0  0  0
 14 16  1  1  0  0  0
 14 20  1  0  0  0  0
 15 21  1  0  0  0  0
 16 22  1  0  0  0  0
 16 23  1  0  0  0  0
M  END
> <PUBCHEM_COMPOUND_CID>
65533

> <PUBCHEM_COMPOUND_CANONICALIZED>
1

> <PUBCHEM_CACTVS_COMPLEXITY>
277

> <PUBCHEM_CACTVS_HBOND_ACCEPTOR>
9

> <PUBCHEM_CACTVS_HBOND_DONOR>
6

> <PUBCHEM_CACTVS_ROTATABLE_BOND>
3

> <PUBCHEM_CACTVS_SUBSKEYS>
AAADccBgPAIAAAAAAAAAAAAAAAAAAAAAAAAkAAAAAAAAAAAAAAAAGgAACCAACBSwgAMACAAABxAAQAAAAIAAAAAAAAAAAAAAAAAREAIAAAACQAAFAAAHAAHAYAQAAAAAAAAAAAAAAAAAAAAAAAAAAAAAAA==

> <PUBCHEM_IUPAC_OPENEYE_NAME>
[(2R,3R,4S,5S,6R)-3,4,5-trihydroxy-6-(hydroxymethyl)tetrahydropyran-2-yl] dihydrogen phosphate

> <PUBCHEM_IUPAC_CAS_NAME>
[(2R,3R,4S,5S,6R)-3,4,5-trihydroxy-6-(hydroxymethyl)-2-oxanyl] dihydrogen phosphate

> <PUBCHEM_IUPAC_NAME>
[(2R,3R,4S,5S,6R)-3,4,5-trihydroxy-6-(hydroxymethyl)oxan-2-yl] dihydrogen phosphate

> <PUBCHEM_IUPAC_SYSTEMATIC_NAME>
[(2R,3R,4S,5S,6R)-6-(hydroxymethyl)-3,4,5-tris(oxidanyl)oxan-2-yl] dihydrogen phosphate

> <PUBCHEM_IUPAC_TRADITIONAL_NAME>
[(2R,3R,4S,5S,6R)-3,4,5-trihydroxy-6-methylol-tetrahydropyran-2-yl] dihydrogen phosphate

> <PUBCHEM_IUPAC_INCHI>
InChI=1S/C6H13O9P/c7-1-2-3(8)4(9)5(10)6(14-2)15-16(11,12)13/h2-10H,1H2,(H2,11,12,13)/t2-,3-,4+,5-,6-/m1/s1

> <PUBCHEM_IUPAC_INCHIKEY>
HXXFSFRBOHSIMQ-VFUOTHLCSA-N

> <PUBCHEM_XLOGP3>
-3.8

> <PUBCHEM_EXACT_MASS>
260.029719

> <PUBCHEM_MOLECULAR_FORMULA>
C6H13O9P

> <PUBCHEM_MOLECULAR_WEIGHT>
260.135782

> <PUBCHEM_OPENEYE_CAN_SMILES>
C(C1C(C(C(C(O1)OP(=O)(O)O)O)O)O)O

> <PUBCHEM_OPENEYE_ISO_SMILES>
C([C@@H]1[C@H]([C@@H]([C@H]([C@H](O1)OP(=O)(O)O)O)O)O)O

> <PUBCHEM_CACTVS_TPSA>
157

> <PUBCHEM_MONOISOTOPIC_WEIGHT>
260.029719

> <PUBCHEM_TOTAL_CHARGE>
0

> <PUBCHEM_HEAVY_ATOM_COUNT>
16

> <PUBCHEM_ATOM_DEF_STEREO_COUNT>
5

> <PUBCHEM_ATOM_UDEF_STEREO_COUNT>
0

> <PUBCHEM_BOND_DEF_STEREO_COUNT>
0

> <PUBCHEM_BOND_UDEF_STEREO_COUNT>
0

> <PUBCHEM_ISOTOPIC_ATOM_COUNT>
0

> <PUBCHEM_COMPONENT_COUNT>
1

> <PUBCHEM_CACTVS_TAUTO_COUNT>
1

> <PUBCHEM_COORDINATE_TYPE>
1
5
255

> <PUBCHEM_BONDANNOTATIONS>
14  16  5
11  3  5
15  4  6
12  5  6
13  6  6

$$$$
"D-Glycerol-1-phosphate_CID_439162"
  -OEChem-03271621442D

 19 18  0     1  0  0  0  0  0999 V2000
    3.4030   -0.4720    0.0000 P   0  0  0  0  0  0  0  0  0  0  0  0
    4.2690    0.0280    0.0000 O   0  0  0  0  0  0  0  0  0  0  0  0
    6.0010    1.0280    0.0000 O   0  0  0  0  0  0  0  0  0  0  0  0
    7.7331    0.0280    0.0000 O   0  0  0  0  0  0  0  0  0  0  0  0
    2.5369   -0.9720    0.0000 O   0  0  0  0  0  0  0  0  0  0  0  0
    2.9030    0.3940    0.0000 O   0  0  0  0  0  0  0  0  0  0  0  0
    3.9030   -1.3380    0.0000 O   0  0  0  0  0  0  0  0  0  0  0  0
    6.0010    0.0280    0.0000 C   0  0  1  0  0  0  0  0  0  0  0  0
    5.1350   -0.4720    0.0000 C   0  0  0  0  0  0  0  0  0  0  0  0
    6.8671   -0.4720    0.0000 C   0  0  0  0  0  0  0  0  0  0  0  0
    6.5380    0.3380    0.0000 H   0  0  0  0  0  0  0  0  0  0  0  0
    4.7365   -0.9469    0.0000 H   0  0  0  0  0  0  0  0  0  0  0  0
    5.5335   -0.9469    0.0000 H   0  0  0  0  0  0  0  0  0  0  0  0
    6.4685   -0.9469    0.0000 H   0  0  0  0  0  0  0  0  0  0  0  0
    7.2656   -0.9469    0.0000 H   0  0  0  0  0  0  0  0  0  0  0  0
    6.5380    1.3380    0.0000 H   0  0  0  0  0  0  0  0  0  0  0  0
    8.2700   -0.2820    0.0000 H   0  0  0  0  0  0  0  0  0  0  0  0
    2.0000   -0.6620    0.0000 H   0  0  0  0  0  0  0  0  0  0  0  0
    3.2130    0.9310    0.0000 H   0  0  0  0  0  0  0  0  0  0  0  0
  1  2  1  0  0  0  0
  1  5  1  0  0  0  0
  1  6  1  0  0  0  0
  1  7  2  0  0  0  0
  2  9  1  0  0  0  0
  8  3  1  6  0  0  0
  3 16  1  0  0  0  0
  4 10  1  0  0  0  0
  4 17  1  0  0  0  0
  5 18  1  0  0  0  0
  6 19  1  0  0  0  0
  8  9  1  0  0  0  0
  8 10  1  0  0  0  0
  8 11  1  0  0  0  0
  9 12  1  0  0  0  0
  9 13  1  0  0  0  0
 10 14  1  0  0  0  0
 10 15  1  0  0  0  0
M  END
> <PUBCHEM_COMPOUND_CID>
439162

> <PUBCHEM_COMPOUND_CANONICALIZED>
1

> <PUBCHEM_CACTVS_COMPLEXITY>
129

> <PUBCHEM_CACTVS_HBOND_ACCEPTOR>
6

> <PUBCHEM_CACTVS_HBOND_DONOR>
4

> <PUBCHEM_CACTVS_ROTATABLE_BOND>
4

> <PUBCHEM_CACTVS_SUBSKEYS>
AAADccBAOAIAAAAAAAAAAAAAAAAAAAAAAAAAAAAAAAAAAAAAAAAAGgAACCAACBSggAIAAAAAAxAAQAAAAIAAAAAAAAAAAAAAAAABEAAAAAAAQAABAAABAAAAAAAAAAAAAAAAAAAAAAAAAAAAAAAAAAAAAA==

> <PUBCHEM_IUPAC_OPENEYE_NAME>
[(2R)-2,3-dihydroxypropyl] dihydrogen phosphate

> <PUBCHEM_IUPAC_CAS_NAME>
[(2R)-2,3-dihydroxypropyl] dihydrogen phosphate

> <PUBCHEM_IUPAC_NAME>
[(2R)-2,3-dihydroxypropyl] dihydrogen phosphate

> <PUBCHEM_IUPAC_SYSTEMATIC_NAME>
[(2R)-2,3-bis(oxidanyl)propyl] dihydrogen phosphate

> <PUBCHEM_IUPAC_TRADITIONAL_NAME>
[(2R)-2,3-dihydroxypropyl] dihydrogen phosphate

> <PUBCHEM_IUPAC_INCHI>
InChI=1S/C3H9O6P/c4-1-3(5)2-9-10(6,7)8/h3-5H,1-2H2,(H2,6,7,8)/t3-/m1/s1

> <PUBCHEM_IUPAC_INCHIKEY>
AWUCVROLDVIAJX-GSVOUGTGSA-N

> <PUBCHEM_XLOGP3_AA>
-2.9

> <PUBCHEM_EXACT_MASS>
172.013675

> <PUBCHEM_MOLECULAR_FORMULA>
C3H9O6P

> <PUBCHEM_MOLECULAR_WEIGHT>
172.073722

> <PUBCHEM_OPENEYE_CAN_SMILES>
C(C(COP(=O)(O)O)O)O

> <PUBCHEM_OPENEYE_ISO_SMILES>
C([C@H](COP(=O)(O)O)O)O

> <PUBCHEM_CACTVS_TPSA>
107

> <PUBCHEM_MONOISOTOPIC_WEIGHT>
172.013675

> <PUBCHEM_TOTAL_CHARGE>
0

> <PUBCHEM_HEAVY_ATOM_COUNT>
10

> <PUBCHEM_ATOM_DEF_STEREO_COUNT>
1

> <PUBCHEM_ATOM_UDEF_STEREO_COUNT>
0

> <PUBCHEM_BOND_DEF_STEREO_COUNT>
0

> <PUBCHEM_BOND_UDEF_STEREO_COUNT>
0

> <PUBCHEM_ISOTOPIC_ATOM_COUNT>
0

> <PUBCHEM_COMPONENT_COUNT>
1

> <PUBCHEM_CACTVS_TAUTO_COUNT>
1

> <PUBCHEM_COORDINATE_TYPE>
1
5
255

> <PUBCHEM_BONDANNOTATIONS>
8  3  6

$$$$
"D-Galactonic_Acid_gamma__lactone_CID_97165"
  -OEChem-03271622512D

 22 22  0     1  0  0  0  0  0999 V2000
    5.0298   -0.5357    0.0000 O   0  0  0  0  0  0  0  0  0  0  0  0
    2.4608   -0.2266    0.0000 O   0  0  0  0  0  0  0  0  0  0  0  0
    3.1330   -2.2957    0.0000 O   0  0  0  0  0  0  0  0  0  0  0  0
    3.3548    1.5521    0.0000 O   0  0  0  0  0  0  0  0  0  0  0  0
    5.0868    2.5521    0.0000 O   0  0  0  0  0  0  0  0  0  0  0  0
    5.3086   -2.2957    0.0000 O   0  0  0  0  0  0  0  0  0  0  0  0
    4.2208    0.0521    0.0000 C   0  0  2  0  0  0  0  0  0  0  0  0
    3.4118   -0.5357    0.0000 C   0  0  1  0  0  0  0  0  0  0  0  0
    3.7208   -1.4867    0.0000 C   0  0  2  0  0  0  0  0  0  0  0  0
    4.2208    1.0521    0.0000 C   0  0  1  0  0  0  0  0  0  0  0  0
    4.7208   -1.4867    0.0000 C   0  0  0  0  0  0  0  0  0  0  0  0
    5.0868    1.5521    0.0000 C   0  0  0  0  0  0  0  0  0  0  0  0
    4.9782    0.4380    0.0000 H   0  0  0  0  0  0  0  0  0  0  0  0
    3.3148    0.0767    0.0000 H   0  0  0  0  0  0  0  0  0  0  0  0
    3.1085   -1.3897    0.0000 H   0  0  0  0  0  0  0  0  0  0  0  0
    4.2208    1.6721    0.0000 H   0  0  0  0  0  0  0  0  0  0  0  0
    5.2989    0.9695    0.0000 H   0  0  0  0  0  0  0  0  0  0  0  0
    5.6974    1.6598    0.0000 H   0  0  0  0  0  0  0  0  0  0  0  0
    2.0000   -0.6415    0.0000 H   0  0  0  0  0  0  0  0  0  0  0  0
    3.3852   -2.8621    0.0000 H   0  0  0  0  0  0  0  0  0  0  0  0
    3.3548    2.1721    0.0000 H   0  0  0  0  0  0  0  0  0  0  0  0
    5.6238    2.8621    0.0000 H   0  0  0  0  0  0  0  0  0  0  0  0
  1  7  1  0  0  0  0
  1 11  1  0  0  0  0
  8  2  1  1  0  0  0
  2 19  1  0  0  0  0
  9  3  1  6  0  0  0
  3 20  1  0  0  0  0
 10  4  1  6  0  0  0
  4 21  1  0  0  0  0
  5 12  1  0  0  0  0
  5 22  1  0  0  0  0
  6 11  2  0  0  0  0
  7  8  1  0  0  0  0
  7 10  1  0  0  0  0
  7 13  1  1  0  0  0
  8  9  1  0  0  0  0
  8 14  1  0  0  0  0
  9 11  1  0  0  0  0
  9 15  1  0  0  0  0
 10 12  1  0  0  0  0
 10 16  1  0  0  0  0
 12 17  1  0  0  0  0
 12 18  1  0  0  0  0
M  END
> <PUBCHEM_COMPOUND_CID>
97165

> <PUBCHEM_COMPOUND_CANONICALIZED>
1

> <PUBCHEM_CACTVS_COMPLEXITY>
181

> <PUBCHEM_CACTVS_HBOND_ACCEPTOR>
6

> <PUBCHEM_CACTVS_HBOND_DONOR>
4

> <PUBCHEM_CACTVS_ROTATABLE_BOND>
2

> <PUBCHEM_CACTVS_SUBSKEYS>
AAADccBgOAAAAAAAAAAAAAAAAAAAASAAAAAAAAAAAAAAAAAAAAAAGgAACAAACBSggAIACAAABgAIAACQCAIAAAAAAAAAAAFAAAABEBYAAAACQAAFIAADAAHKbARAAAAAAAAAAAAAAAAAAAAAAAAAAAAAAA==

> <PUBCHEM_IUPAC_OPENEYE_NAME>
(3R,4R,5S)-5-[(1R)-1,2-dihydroxyethyl]-3,4-dihydroxy-tetrahydrofuran-2-one

> <PUBCHEM_IUPAC_CAS_NAME>
(3R,4R,5S)-5-[(1R)-1,2-dihydroxyethyl]-3,4-dihydroxy-2-oxolanone

> <PUBCHEM_IUPAC_NAME>
(3R,4R,5S)-5-[(1R)-1,2-dihydroxyethyl]-3,4-dihydroxyoxolan-2-one

> <PUBCHEM_IUPAC_SYSTEMATIC_NAME>
(3R,4R,5S)-5-[(1R)-1,2-bis(oxidanyl)ethyl]-3,4-bis(oxidanyl)oxolan-2-one

> <PUBCHEM_IUPAC_TRADITIONAL_NAME>
(3R,4R,5S)-5-[(1R)-1,2-dihydroxyethyl]-3,4-dihydroxy-tetrahydrofuran-2-one

> <PUBCHEM_IUPAC_INCHI>
InChI=1S/C6H10O6/c7-1-2(8)5-3(9)4(10)6(11)12-5/h2-5,7-10H,1H2/t2-,3-,4-,5+/m1/s1

> <PUBCHEM_IUPAC_INCHIKEY>
SXZYCXMUPBBULW-AIHAYLRMSA-N

> <PUBCHEM_XLOGP3_AA>
-2

> <PUBCHEM_EXACT_MASS>
178.047738

> <PUBCHEM_MOLECULAR_FORMULA>
C6H10O6

> <PUBCHEM_MOLECULAR_WEIGHT>
178.14

> <PUBCHEM_OPENEYE_CAN_SMILES>
C(C(C1C(C(C(=O)O1)O)O)O)O

> <PUBCHEM_OPENEYE_ISO_SMILES>
C([C@H]([C@H]1[C@@H]([C@H](C(=O)O1)O)O)O)O

> <PUBCHEM_CACTVS_TPSA>
107

> <PUBCHEM_MONOISOTOPIC_WEIGHT>
178.047738

> <PUBCHEM_TOTAL_CHARGE>
0

> <PUBCHEM_HEAVY_ATOM_COUNT>
12

> <PUBCHEM_ATOM_DEF_STEREO_COUNT>
4

> <PUBCHEM_ATOM_UDEF_STEREO_COUNT>
0

> <PUBCHEM_BOND_DEF_STEREO_COUNT>
0

> <PUBCHEM_BOND_UDEF_STEREO_COUNT>
0

> <PUBCHEM_ISOTOPIC_ATOM_COUNT>
0

> <PUBCHEM_COMPONENT_COUNT>
1

> <PUBCHEM_CACTVS_TAUTO_COUNT>
6

> <PUBCHEM_COORDINATE_TYPE>
1
5
255

> <PUBCHEM_BONDANNOTATIONS>
8  2  5
9  3  6
10  4  6
7  13  5

$$$$
"D-Galacturonic_Acid_CID_439215"
  -OEChem-03271622522D

 23 23  0     1  0  0  0  0  0999 V2000
    4.2690    1.0000    0.0000 O   0  0  0  0  0  0  0  0  0  0  0  0
    4.2690   -2.0000    0.0000 O   0  0  0  0  0  0  0  0  0  0  0  0
    6.0010   -1.0000    0.0000 O   0  0  0  0  0  0  0  0  0  0  0  0
    2.5369   -1.0000    0.0000 O   0  0  0  0  0  0  0  0  0  0  0  0
    2.5369    1.0000    0.0000 O   0  0  0  0  0  0  0  0  0  0  0  0
    6.0010    2.0000    0.0000 O   0  0  0  0  0  0  0  0  0  0  0  0
    6.8671    0.5000    0.0000 O   0  0  0  0  0  0  0  0  0  0  0  0
    4.2690   -1.0000    0.0000 C   0  0  1  0  0  0  0  0  0  0  0  0
    5.1350   -0.5000    0.0000 C   0  0  2  0  0  0  0  0  0  0  0  0
    3.4030   -0.5000    0.0000 C   0  0  2  0  0  0  0  0  0  0  0  0
    5.1350    0.5000    0.0000 C   0  0  1  0  0  0  0  0  0  0  0  0
    3.4030    0.5000    0.0000 C   0  0  3  0  0  0  0  0  0  0  0  0
    6.0010    1.0000    0.0000 C   0  0  0  0  0  0  0  0  0  0  0  0
    4.8059   -1.3100    0.0000 H   0  0  0  0  0  0  0  0  0  0  0  0
    5.1350   -1.1200    0.0000 H   0  0  0  0  0  0  0  0  0  0  0  0
    3.4030   -1.1200    0.0000 H   0  0  0  0  0  0  0  0  0  0  0  0
    5.1350    1.1200    0.0000 H   0  0  0  0  0  0  0  0  0  0  0  0
    3.4030    1.3500    0.0000 H   0  0  0  0  0  0  0  0  0  0  0  0
    3.7320   -2.3100    0.0000 H   0  0  0  0  0  0  0  0  0  0  0  0
    6.0010   -1.6200    0.0000 H   0  0  0  0  0  0  0  0  0  0  0  0
    2.0000   -0.6900    0.0000 H   0  0  0  0  0  0  0  0  0  0  0  0
    2.5369    1.6200    0.0000 H   0  0  0  0  0  0  0  0  0  0  0  0
    6.5380    2.3100    0.0000 H   0  0  0  0  0  0  0  0  0  0  0  0
  1 11  1  0  0  0  0
  1 12  1  0  0  0  0
  8  2  1  6  0  0  0
  2 19  1  0  0  0  0
  9  3  1  6  0  0  0
  3 20  1  0  0  0  0
 10  4  1  1  0  0  0
  4 21  1  0  0  0  0
  5 12  1  0  0  0  0
  5 22  1  0  0  0  0
  6 13  1  0  0  0  0
  6 23  1  0  0  0  0
  7 13  2  0  0  0  0
  8  9  1  0  0  0  0
  8 10  1  0  0  0  0
  8 14  1  0  0  0  0
  9 11  1  0  0  0  0
  9 15  1  0  0  0  0
 10 12  1  0  0  0  0
 10 16  1  0  0  0  0
 11 13  1  6  0  0  0
 11 17  1  0  0  0  0
 12 18  1  0  0  0  0
M  END
> <PUBCHEM_COMPOUND_CID>
439215

> <PUBCHEM_COMPOUND_CANONICALIZED>
1

> <PUBCHEM_CACTVS_COMPLEXITY>
205

> <PUBCHEM_CACTVS_HBOND_ACCEPTOR>
7

> <PUBCHEM_CACTVS_HBOND_DONOR>
5

> <PUBCHEM_CACTVS_ROTATABLE_BOND>
1

> <PUBCHEM_CACTVS_SUBSKEYS>
AAADccBgOAAAAAAAAAAAAAAAAAAAAAAAAAAkAAAAAAAAAAAAAAAAGgAACAAACBSwgAMACAAABgAIAACQCAIAAAAAAAAAAAFAAAAREBYAAAQCQAAFIAAHAAHKbARAAAAAAAAAAAAAAAAAAAAAAAAAAAAAAA==

> <PUBCHEM_IUPAC_OPENEYE_NAME>
(2S,3R,4S,5R)-3,4,5,6-tetrahydroxytetrahydropyran-2-carboxylic acid

> <PUBCHEM_IUPAC_CAS_NAME>
(2S,3R,4S,5R)-3,4,5,6-tetrahydroxy-2-oxanecarboxylic acid

> <PUBCHEM_IUPAC_NAME>
(2S,3R,4S,5R)-3,4,5,6-tetrahydroxyoxane-2-carboxylic acid

> <PUBCHEM_IUPAC_SYSTEMATIC_NAME>
(2S,3R,4S,5R)-3,4,5,6-tetrakis(oxidanyl)oxane-2-carboxylic acid

> <PUBCHEM_IUPAC_TRADITIONAL_NAME>
(2S,3R,4S,5R)-3,4,5,6-tetrahydroxytetrahydropyran-2-carboxylic acid

> <PUBCHEM_IUPAC_INCHI>
InChI=1S/C6H10O7/c7-1-2(8)4(5(10)11)13-6(12)3(1)9/h1-4,6-9,12H,(H,10,11)/t1-,2+,3+,4-,6?/m0/s1

> <PUBCHEM_IUPAC_INCHIKEY>
AEMOLEFTQBMNLQ-YMDCURPLSA-N

> <PUBCHEM_XLOGP3_AA>
-2.3

> <PUBCHEM_EXACT_MASS>
194.042653

> <PUBCHEM_MOLECULAR_FORMULA>
C6H10O7

> <PUBCHEM_MOLECULAR_WEIGHT>
194.1394

> <PUBCHEM_OPENEYE_CAN_SMILES>
C1(C(C(OC(C1O)O)C(=O)O)O)O

> <PUBCHEM_OPENEYE_ISO_SMILES>
[C@@H]1([C@H]([C@H](OC([C@@H]1O)O)C(=O)O)O)O

> <PUBCHEM_CACTVS_TPSA>
127

> <PUBCHEM_MONOISOTOPIC_WEIGHT>
194.042653

> <PUBCHEM_TOTAL_CHARGE>
0

> <PUBCHEM_HEAVY_ATOM_COUNT>
13

> <PUBCHEM_ATOM_DEF_STEREO_COUNT>
4

> <PUBCHEM_ATOM_UDEF_STEREO_COUNT>
1

> <PUBCHEM_BOND_DEF_STEREO_COUNT>
0

> <PUBCHEM_BOND_UDEF_STEREO_COUNT>
0

> <PUBCHEM_ISOTOPIC_ATOM_COUNT>
0

> <PUBCHEM_COMPONENT_COUNT>
1

> <PUBCHEM_CACTVS_TAUTO_COUNT>
1

> <PUBCHEM_COORDINATE_TYPE>
1
5
255

> <PUBCHEM_BONDANNOTATIONS>
11  13  6
12  18  3
8  2  6
9  3  6
10  4  5

$$$$
"2-HydroxyBenzoic Acid CID338"
  -OEChem-03271623052D

 16 16  0     0  0  0  0  0  0999 V2000
    2.5369   -0.0600    0.0000 O   0  0  0  0  0  0  0  0  0  0  0  0
    5.1350    1.4400    0.0000 O   0  0  0  0  0  0  0  0  0  0  0  0
    3.4030    1.4400    0.0000 O   0  0  0  0  0  0  0  0  0  0  0  0
    4.2690   -0.0600    0.0000 C   0  0  0  0  0  0  0  0  0  0  0  0
    3.4030   -0.5600    0.0000 C   0  0  0  0  0  0  0  0  0  0  0  0
    5.1350   -0.5600    0.0000 C   0  0  0  0  0  0  0  0  0  0  0  0
    3.4030   -1.5600    0.0000 C   0  0  0  0  0  0  0  0  0  0  0  0
    5.1350   -1.5600    0.0000 C   0  0  0  0  0  0  0  0  0  0  0  0
    4.2690   -2.0600    0.0000 C   0  0  0  0  0  0  0  0  0  0  0  0
    4.2690    0.9400    0.0000 C   0  0  0  0  0  0  0  0  0  0  0  0
    5.6720   -0.2500    0.0000 H   0  0  0  0  0  0  0  0  0  0  0  0
    2.8660   -1.8700    0.0000 H   0  0  0  0  0  0  0  0  0  0  0  0
    5.6720   -1.8700    0.0000 H   0  0  0  0  0  0  0  0  0  0  0  0
    4.2690   -2.6800    0.0000 H   0  0  0  0  0  0  0  0  0  0  0  0
    2.0000   -0.3700    0.0000 H   0  0  0  0  0  0  0  0  0  0  0  0
    5.1350    2.0600    0.0000 H   0  0  0  0  0  0  0  0  0  0  0  0
  1  5  1  0  0  0  0
  1 15  1  0  0  0  0
  2 10  1  0  0  0  0
  2 16  1  0  0  0  0
  3 10  2  0  0  0  0
  4  5  1  0  0  0  0
  4  6  2  0  0  0  0
  4 10  1  0  0  0  0
  5  7  2  0  0  0  0
  6  8  1  0  0  0  0
  6 11  1  0  0  0  0
  7  9  1  0  0  0  0
  7 12  1  0  0  0  0
  8  9  2  0  0  0  0
  8 13  1  0  0  0  0
  9 14  1  0  0  0  0
M  END
> <PUBCHEM_COMPOUND_CID>
338

> <PUBCHEM_COMPOUND_CANONICALIZED>
1

> <PUBCHEM_CACTVS_COMPLEXITY>
133

> <PUBCHEM_CACTVS_HBOND_ACCEPTOR>
3

> <PUBCHEM_CACTVS_HBOND_DONOR>
2

> <PUBCHEM_CACTVS_ROTATABLE_BOND>
1

> <PUBCHEM_CACTVS_SUBSKEYS>
AAADcYBgMAAAAAAAAAAAAAAAAAAAAAAAAAAwAAAAAAAAAAABAAAAGgAACAAADASAmAAwDoAAAgCIAiDSCAACAAAkIAAIiAEGCMgIJzaCFRKAcUAl4BEImYeIyCCOAAAAAAAIAAAAAAAAABAAAAAAAAAAAA==

> <PUBCHEM_IUPAC_OPENEYE_NAME>
2-hydroxybenzoic acid

> <PUBCHEM_IUPAC_CAS_NAME>
2-hydroxybenzoic acid

> <PUBCHEM_IUPAC_NAME>
2-hydroxybenzoic acid

> <PUBCHEM_IUPAC_SYSTEMATIC_NAME>
2-oxidanylbenzoic acid

> <PUBCHEM_IUPAC_TRADITIONAL_NAME>
salicylic acid

> <PUBCHEM_IUPAC_INCHI>
InChI=1S/C7H6O3/c8-6-4-2-1-3-5(6)7(9)10/h1-4,8H,(H,9,10)

> <PUBCHEM_IUPAC_INCHIKEY>
YGSDEFSMJLZEOE-UHFFFAOYSA-N

> <PUBCHEM_XLOGP3>
2.3

> <PUBCHEM_EXACT_MASS>
138.031694

> <PUBCHEM_MOLECULAR_FORMULA>
C7H6O3

> <PUBCHEM_MOLECULAR_WEIGHT>
138.12074

> <PUBCHEM_OPENEYE_CAN_SMILES>
C1=CC=C(C(=C1)C(=O)O)O

> <PUBCHEM_OPENEYE_ISO_SMILES>
C1=CC=C(C(=C1)C(=O)O)O

> <PUBCHEM_CACTVS_TPSA>
57.5

> <PUBCHEM_MONOISOTOPIC_WEIGHT>
138.031694

> <PUBCHEM_TOTAL_CHARGE>
0

> <PUBCHEM_HEAVY_ATOM_COUNT>
10

> <PUBCHEM_ATOM_DEF_STEREO_COUNT>
0

> <PUBCHEM_ATOM_UDEF_STEREO_COUNT>
0

> <PUBCHEM_BOND_DEF_STEREO_COUNT>
0

> <PUBCHEM_BOND_UDEF_STEREO_COUNT>
0

> <PUBCHEM_ISOTOPIC_ATOM_COUNT>
0

> <PUBCHEM_COMPONENT_COUNT>
1

> <PUBCHEM_CACTVS_TAUTO_COUNT>
4

> <PUBCHEM_COORDINATE_TYPE>
1
5
255

> <PUBCHEM_BONDANNOTATIONS>
4  5  8
4  6  8
5  7  8
6  8  8
7  9  8
8  9  8

$$$$
"4-HydroxyBenzoic_Acid CID135"
  -OEChem-03271623062D

 16 16  0     0  0  0  0  0  0999 V2000
    2.8660   -2.4050    0.0000 O   0  0  0  0  0  0  0  0  0  0  0  0
    3.7320    2.0950    0.0000 O   0  0  0  0  0  0  0  0  0  0  0  0
    2.0000    2.0950    0.0000 O   0  0  0  0  0  0  0  0  0  0  0  0
    2.8660    0.5950    0.0000 C   0  0  0  0  0  0  0  0  0  0  0  0
    2.0000    0.0950    0.0000 C   0  0  0  0  0  0  0  0  0  0  0  0
    3.7320    0.0950    0.0000 C   0  0  0  0  0  0  0  0  0  0  0  0
    2.8660   -1.4050    0.0000 C   0  0  0  0  0  0  0  0  0  0  0  0
    2.0000   -0.9050    0.0000 C   0  0  0  0  0  0  0  0  0  0  0  0
    3.7320   -0.9050    0.0000 C   0  0  0  0  0  0  0  0  0  0  0  0
    2.8660    1.5950    0.0000 C   0  0  0  0  0  0  0  0  0  0  0  0
    1.4631    0.4050    0.0000 H   0  0  0  0  0  0  0  0  0  0  0  0
    4.2690    0.4050    0.0000 H   0  0  0  0  0  0  0  0  0  0  0  0
    1.4631   -1.2150    0.0000 H   0  0  0  0  0  0  0  0  0  0  0  0
    4.2690   -1.2150    0.0000 H   0  0  0  0  0  0  0  0  0  0  0  0
    2.3291   -2.7150    0.0000 H   0  0  0  0  0  0  0  0  0  0  0  0
    3.7320    2.7150    0.0000 H   0  0  0  0  0  0  0  0  0  0  0  0
  1  7  1  0  0  0  0
  1 15  1  0  0  0  0
  2 10  1  0  0  0  0
  2 16  1  0  0  0  0
  3 10  2  0  0  0  0
  4  5  2  0  0  0  0
  4  6  1  0  0  0  0
  4 10  1  0  0  0  0
  5  8  1  0  0  0  0
  5 11  1  0  0  0  0
  6  9  2  0  0  0  0
  6 12  1  0  0  0  0
  7  8  2  0  0  0  0
  7  9  1  0  0  0  0
  8 13  1  0  0  0  0
  9 14  1  0  0  0  0
M  END
> <PUBCHEM_COMPOUND_CID>
135

> <PUBCHEM_COMPOUND_CANONICALIZED>
1

> <PUBCHEM_CACTVS_COMPLEXITY>
125

> <PUBCHEM_CACTVS_HBOND_ACCEPTOR>
3

> <PUBCHEM_CACTVS_HBOND_DONOR>
2

> <PUBCHEM_CACTVS_ROTATABLE_BOND>
1

> <PUBCHEM_CACTVS_SUBSKEYS>
AAADcYBgMAAAAAAAAAAAAAAAAAAAAAAAAAAwAAAAAAAAAAABAAAAGgAACAAADASAmAAwDoAAAgCIAiDSCAACAAAkIAAIiAEGCMgIJjKCFRKAcQAkwBEImYeI7CTOIAAAAAAAAABAAAAAAAAAAAAAAAAAAA==

> <PUBCHEM_IUPAC_OPENEYE_NAME>
4-hydroxybenzoic acid

> <PUBCHEM_IUPAC_CAS_NAME>
4-hydroxybenzoic acid

> <PUBCHEM_IUPAC_NAME>
4-hydroxybenzoic acid

> <PUBCHEM_IUPAC_SYSTEMATIC_NAME>
4-oxidanylbenzoic acid

> <PUBCHEM_IUPAC_TRADITIONAL_NAME>
4-hydroxybenzoic acid

> <PUBCHEM_IUPAC_INCHI>
InChI=1S/C7H6O3/c8-6-3-1-5(2-4-6)7(9)10/h1-4,8H,(H,9,10)

> <PUBCHEM_IUPAC_INCHIKEY>
FJKROLUGYXJWQN-UHFFFAOYSA-N

> <PUBCHEM_XLOGP3>
1.6

> <PUBCHEM_EXACT_MASS>
138.031694

> <PUBCHEM_MOLECULAR_FORMULA>
C7H6O3

> <PUBCHEM_MOLECULAR_WEIGHT>
138.12074

> <PUBCHEM_OPENEYE_CAN_SMILES>
C1=CC(=CC=C1C(=O)O)O

> <PUBCHEM_OPENEYE_ISO_SMILES>
C1=CC(=CC=C1C(=O)O)O

> <PUBCHEM_CACTVS_TPSA>
57.5

> <PUBCHEM_MONOISOTOPIC_WEIGHT>
138.031694

> <PUBCHEM_TOTAL_CHARGE>
0

> <PUBCHEM_HEAVY_ATOM_COUNT>
10

> <PUBCHEM_ATOM_DEF_STEREO_COUNT>
0

> <PUBCHEM_ATOM_UDEF_STEREO_COUNT>
0

> <PUBCHEM_BOND_DEF_STEREO_COUNT>
0

> <PUBCHEM_BOND_UDEF_STEREO_COUNT>
0

> <PUBCHEM_ISOTOPIC_ATOM_COUNT>
0

> <PUBCHEM_COMPONENT_COUNT>
1

> <PUBCHEM_CACTVS_TAUTO_COUNT>
4

> <PUBCHEM_COORDINATE_TYPE>
1
5
255

> <PUBCHEM_BONDANNOTATIONS>
4  5  8
4  6  8
5  8  8
6  9  8
7  8  8
7  9  8

$$$$
"g-Hydrobutyric_Acid_FDB022196"
  Mrv0541 02231218422D          

  7  6  0  0  0  0            999 V2000
   24.1052  -11.5157    0.0000 O   0  0  0  0  0  0  0  0  0  0  0  0
   20.5327  -11.1032    0.0000 O   0  0  0  0  0  0  0  0  0  0  0  0
   21.2472  -12.3408    0.0000 O   0  0  0  0  0  0  0  0  0  0  0  0
   22.6762  -11.5157    0.0000 C   0  0  0  0  0  0  0  0  0  0  0  0
   21.9617  -11.1032    0.0000 C   0  0  0  0  0  0  0  0  0  0  0  0
   23.3906  -11.1032    0.0000 C   0  0  0  0  0  0  0  0  0  0  0  0
   21.2472  -11.5157    0.0000 C   0  0  0  0  0  0  0  0  0  0  0  0
  1  6  1  0  0  0  0
  2  7  1  0  0  0  0
  3  7  2  0  0  0  0
  4  5  1  0  0  0  0
  4  6  1  0  0  0  0
  5  7  1  0  0  0  0
M  END
> <DATABASE_ID>
FDB022196

> <DATABASE_NAME>
foodb

> <SMILES>
OCCCC(O)=O

> <INCHI_IDENTIFIER>
InChI=1S/C4H8O3/c5-3-1-2-4(6)7/h5H,1-3H2,(H,6,7)

> <INCHI_KEY>
SJZRECIVHVDYJC-UHFFFAOYSA-N

> <FORMULA>
C4H8O3

> <MOLECULAR_WEIGHT>
104.1045

> <EXACT_MASS>
104.047344122

> <JCHEM_ACCEPTOR_COUNT>
3

> <JCHEM_AVERAGE_POLARIZABILITY>
10.16613490401106

> <JCHEM_BIOAVAILABILITY>
1

> <JCHEM_DONOR_COUNT>
2

> <JCHEM_FORMAL_CHARGE>
0

> <JCHEM_GHOSE_FILTER>
0

> <JCHEM_IUPAC>
4-hydroxybutanoic acid

> <ALOGPS_LOGP>
-0.63

> <JCHEM_LOGP>
-0.5149198190000002

> <ALOGPS_LOGS>
0.68

> <JCHEM_MDDR_LIKE_RULE>
0

> <JCHEM_NUMBER_OF_RINGS>
0

> <JCHEM_PHYSIOLOGICAL_CHARGE>
-1

> <JCHEM_PKA>
15.98255965448772

> <JCHEM_PKA_STRONGEST_ACIDIC>
4.440873954984472

> <JCHEM_PKA_STRONGEST_BASIC>
-2.3817124873466886

> <JCHEM_POLAR_SURFACE_AREA>
57.53

> <JCHEM_REFRACTIVITY>
23.800299999999996

> <JCHEM_ROTATABLE_BOND_COUNT>
3

> <JCHEM_RULE_OF_FIVE>
1

> <ALOGPS_SOLUBILITY>
4.94e+02 g/l

> <JCHEM_TRADITIONAL_IUPAC>
gamma hydroxybutyric acid

> <JCHEM_VEBER_RULE>
0

$$$$
"Itaconic_Acid_CID_811"
  -OEChem-03271623132D

 15 14  0     0  0  0  0  0  0999 V2000
    2.5369    0.2500    0.0000 O   0  0  0  0  0  0  0  0  0  0  0  0
    6.8671   -0.2500    0.0000 O   0  0  0  0  0  0  0  0  0  0  0  0
    3.4030   -1.2500    0.0000 O   0  0  0  0  0  0  0  0  0  0  0  0
    6.0010    1.2500    0.0000 O   0  0  0  0  0  0  0  0  0  0  0  0
    4.2690    0.2500    0.0000 C   0  0  0  0  0  0  0  0  0  0  0  0
    5.1350   -0.2500    0.0000 C   0  0  0  0  0  0  0  0  0  0  0  0
    3.4030   -0.2500    0.0000 C   0  0  0  0  0  0  0  0  0  0  0  0
    6.0010    0.2500    0.0000 C   0  0  0  0  0  0  0  0  0  0  0  0
    5.1350   -1.2500    0.0000 C   0  0  0  0  0  0  0  0  0  0  0  0
    4.6675    0.7249    0.0000 H   0  0  0  0  0  0  0  0  0  0  0  0
    3.8705    0.7249    0.0000 H   0  0  0  0  0  0  0  0  0  0  0  0
    4.5981   -1.5600    0.0000 H   0  0  0  0  0  0  0  0  0  0  0  0
    5.6720   -1.5600    0.0000 H   0  0  0  0  0  0  0  0  0  0  0  0
    2.0000   -0.0600    0.0000 H   0  0  0  0  0  0  0  0  0  0  0  0
    7.4040    0.0600    0.0000 H   0  0  0  0  0  0  0  0  0  0  0  0
  1  7  1  0  0  0  0
  1 14  1  0  0  0  0
  2  8  1  0  0  0  0
  2 15  1  0  0  0  0
  3  7  2  0  0  0  0
  4  8  2  0  0  0  0
  5  6  1  0  0  0  0
  5  7  1  0  0  0  0
  5 10  1  0  0  0  0
  5 11  1  0  0  0  0
  6  8  1  0  0  0  0
  6  9  2  0  0  0  0
  9 12  1  0  0  0  0
  9 13  1  0  0  0  0
M  END
> <PUBCHEM_COMPOUND_CID>
811

> <PUBCHEM_COMPOUND_CANONICALIZED>
1

> <PUBCHEM_CACTVS_COMPLEXITY>
158

> <PUBCHEM_CACTVS_HBOND_ACCEPTOR>
4

> <PUBCHEM_CACTVS_HBOND_DONOR>
2

> <PUBCHEM_CACTVS_ROTATABLE_BOND>
3

> <PUBCHEM_CACTVS_SUBSKEYS>
AAADcYBgOAAAAAAAAAAAAAAAAAAAAAAAAAAAAAAAAAAAAAAAAAAAGgAACAAADACAgAAACAAAAgCIAgDSCAAAAAAgAAAAAAEAAEgABBAAAQAAQAAEQAAAEIBDAAAAAAAAAAAAAAAAAAAAAAAAAAAAAAAAAA==

> <PUBCHEM_IUPAC_OPENEYE_NAME>
2-methylenebutanedioic acid

> <PUBCHEM_IUPAC_CAS_NAME>
2-methylenebutanedioic acid

> <PUBCHEM_IUPAC_NAME>
2-methylidenebutanedioic acid

> <PUBCHEM_IUPAC_SYSTEMATIC_NAME>
2-methylidenebutanedioic acid

> <PUBCHEM_IUPAC_TRADITIONAL_NAME>
itaconic acid

> <PUBCHEM_IUPAC_INCHI>
InChI=1S/C5H6O4/c1-3(5(8)9)2-4(6)7/h1-2H2,(H,6,7)(H,8,9)

> <PUBCHEM_IUPAC_INCHIKEY>
LVHBHZANLOWSRM-UHFFFAOYSA-N

> <PUBCHEM_XLOGP3_AA>
-0.1

> <PUBCHEM_EXACT_MASS>
130.026609

> <PUBCHEM_MOLECULAR_FORMULA>
C5H6O4

> <PUBCHEM_MOLECULAR_WEIGHT>
130.09874

> <PUBCHEM_OPENEYE_CAN_SMILES>
C=C(CC(=O)O)C(=O)O

> <PUBCHEM_OPENEYE_ISO_SMILES>
C=C(CC(=O)O)C(=O)O

> <PUBCHEM_CACTVS_TPSA>
74.6

> <PUBCHEM_MONOISOTOPIC_WEIGHT>
130.026609

> <PUBCHEM_TOTAL_CHARGE>
0

> <PUBCHEM_HEAVY_ATOM_COUNT>
9

> <PUBCHEM_ATOM_DEF_STEREO_COUNT>
0

> <PUBCHEM_ATOM_UDEF_STEREO_COUNT>
0

> <PUBCHEM_BOND_DEF_STEREO_COUNT>
0

> <PUBCHEM_BOND_UDEF_STEREO_COUNT>
0

> <PUBCHEM_ISOTOPIC_ATOM_COUNT>
0

> <PUBCHEM_COMPONENT_COUNT>
1

> <PUBCHEM_CACTVS_TAUTO_COUNT>
2

> <PUBCHEM_COORDINATE_TYPE>
1
5
255

$$$$
"alpha-Ketobutyric_Acid_CID_58"
  -OEChem-03271623142D

 13 12  0     0  0  0  0  0  0999 V2000
    3.7320   -1.2500    0.0000 O   0  0  0  0  0  0  0  0  0  0  0  0
    5.4641   -0.2500    0.0000 O   0  0  0  0  0  0  0  0  0  0  0  0
    4.5981    1.2500    0.0000 O   0  0  0  0  0  0  0  0  0  0  0  0
    2.8660    0.2500    0.0000 C   0  0  0  0  0  0  0  0  0  0  0  0
    2.0000   -0.2500    0.0000 C   0  0  0  0  0  0  0  0  0  0  0  0
    3.7320   -0.2500    0.0000 C   0  0  0  0  0  0  0  0  0  0  0  0
    4.5981    0.2500    0.0000 C   0  0  0  0  0  0  0  0  0  0  0  0
    3.2646    0.7249    0.0000 H   0  0  0  0  0  0  0  0  0  0  0  0
    2.4675    0.7249    0.0000 H   0  0  0  0  0  0  0  0  0  0  0  0
    1.6900    0.2869    0.0000 H   0  0  0  0  0  0  0  0  0  0  0  0
    1.4631   -0.5600    0.0000 H   0  0  0  0  0  0  0  0  0  0  0  0
    2.3100   -0.7869    0.0000 H   0  0  0  0  0  0  0  0  0  0  0  0
    6.0010    0.0600    0.0000 H   0  0  0  0  0  0  0  0  0  0  0  0
  1  6  2  0  0  0  0
  2  7  1  0  0  0  0
  2 13  1  0  0  0  0
  3  7  2  0  0  0  0
  4  5  1  0  0  0  0
  4  6  1  0  0  0  0
  4  8  1  0  0  0  0
  4  9  1  0  0  0  0
  5 10  1  0  0  0  0
  5 11  1  0  0  0  0
  5 12  1  0  0  0  0
  6  7  1  0  0  0  0
M  END
> <PUBCHEM_COMPOUND_CID>
58

> <PUBCHEM_COMPOUND_CANONICALIZED>
1

> <PUBCHEM_CACTVS_COMPLEXITY>
95.1

> <PUBCHEM_CACTVS_HBOND_ACCEPTOR>
3

> <PUBCHEM_CACTVS_HBOND_DONOR>
1

> <PUBCHEM_CACTVS_ROTATABLE_BOND>
2

> <PUBCHEM_CACTVS_SUBSKEYS>
AAADcYBgMAAAAAAAAAAAAAAAAAAAAAAAAAAAAAAAAAAAAAAAAAAAGgAACAAACASAgAACCAAAAgAIAICQCAIAAAAAAAAAAAFAAAAAABAAAAAAQAAEAAAAAAAAAAAAAAAAAAAAAAAAAAAAAAAAAAAAAAAAAA==

> <PUBCHEM_IUPAC_OPENEYE_NAME>
2-oxobutanoic acid

> <PUBCHEM_IUPAC_CAS_NAME>
2-oxobutanoic acid

> <PUBCHEM_IUPAC_NAME>
2-oxobutanoic acid

> <PUBCHEM_IUPAC_SYSTEMATIC_NAME>
2-oxidanylidenebutanoic acid

> <PUBCHEM_IUPAC_TRADITIONAL_NAME>
2-ketobutyric acid

> <PUBCHEM_IUPAC_INCHI>
InChI=1S/C4H6O3/c1-2-3(5)4(6)7/h2H2,1H3,(H,6,7)

> <PUBCHEM_IUPAC_INCHIKEY>
TYEYBOSBBBHJIV-UHFFFAOYSA-N

> <PUBCHEM_XLOGP3_AA>
0.1

> <PUBCHEM_EXACT_MASS>
102.031694

> <PUBCHEM_MOLECULAR_FORMULA>
C4H6O3

> <PUBCHEM_MOLECULAR_WEIGHT>
102.08864

> <PUBCHEM_OPENEYE_CAN_SMILES>
CCC(=O)C(=O)O

> <PUBCHEM_OPENEYE_ISO_SMILES>
CCC(=O)C(=O)O

> <PUBCHEM_CACTVS_TPSA>
54.4

> <PUBCHEM_MONOISOTOPIC_WEIGHT>
102.031694

> <PUBCHEM_TOTAL_CHARGE>
0

> <PUBCHEM_HEAVY_ATOM_COUNT>
7

> <PUBCHEM_ATOM_DEF_STEREO_COUNT>
0

> <PUBCHEM_ATOM_UDEF_STEREO_COUNT>
0

> <PUBCHEM_BOND_DEF_STEREO_COUNT>
0

> <PUBCHEM_BOND_UDEF_STEREO_COUNT>
0

> <PUBCHEM_ISOTOPIC_ATOM_COUNT>
0

> <PUBCHEM_COMPONENT_COUNT>
1

> <PUBCHEM_CACTVS_TAUTO_COUNT>
2

> <PUBCHEM_COORDINATE_TYPE>
1
5
255

$$$$
"D-Malic_Acid_CID_92824"
  -OEChem-03271623152D

 15 14  0     1  0  0  0  0  0999 V2000
    5.1350   -1.0950    0.0000 O   0  0  0  0  0  0  0  0  0  0  0  0
    6.8671   -0.0950    0.0000 O   0  0  0  0  0  0  0  0  0  0  0  0
    2.5369    0.4050    0.0000 O   0  0  0  0  0  0  0  0  0  0  0  0
    6.0010    1.4050    0.0000 O   0  0  0  0  0  0  0  0  0  0  0  0
    3.4030   -1.0950    0.0000 O   0  0  0  0  0  0  0  0  0  0  0  0
    5.1350   -0.0950    0.0000 C   0  0  2  0  0  0  0  0  0  0  0  0
    4.2690    0.4050    0.0000 C   0  0  0  0  0  0  0  0  0  0  0  0
    6.0010    0.4050    0.0000 C   0  0  0  0  0  0  0  0  0  0  0  0
    3.4030   -0.0950    0.0000 C   0  0  0  0  0  0  0  0  0  0  0  0
    5.6720   -0.4050    0.0000 H   0  0  0  0  0  0  0  0  0  0  0  0
    4.6675    0.8799    0.0000 H   0  0  0  0  0  0  0  0  0  0  0  0
    3.8705    0.8799    0.0000 H   0  0  0  0  0  0  0  0  0  0  0  0
    4.5981   -1.4050    0.0000 H   0  0  0  0  0  0  0  0  0  0  0  0
    7.4040    0.2150    0.0000 H   0  0  0  0  0  0  0  0  0  0  0  0
    2.0000    0.0950    0.0000 H   0  0  0  0  0  0  0  0  0  0  0  0
  6  1  1  6  0  0  0
  1 13  1  0  0  0  0
  2  8  1  0  0  0  0
  2 14  1  0  0  0  0
  3  9  1  0  0  0  0
  3 15  1  0  0  0  0
  4  8  2  0  0  0  0
  5  9  2  0  0  0  0
  6  7  1  0  0  0  0
  6  8  1  0  0  0  0
  6 10  1  0  0  0  0
  7  9  1  0  0  0  0
  7 11  1  0  0  0  0
  7 12  1  0  0  0  0
M  END
> <PUBCHEM_COMPOUND_CID>
92824

> <PUBCHEM_COMPOUND_CANONICALIZED>
1

> <PUBCHEM_CACTVS_COMPLEXITY>
129

> <PUBCHEM_CACTVS_HBOND_ACCEPTOR>
5

> <PUBCHEM_CACTVS_HBOND_DONOR>
3

> <PUBCHEM_CACTVS_ROTATABLE_BOND>
3

> <PUBCHEM_CACTVS_SUBSKEYS>
AAADcYBgOAAAAAAAAAAAAAAAAAAAAAAAAAAAAAAAAAAAAAAAAAAAGgAACAAACBSggAIACAAAAgAIAACQCAIAAAAAAAAAAAFAAAABEBQAAAAAQAAFIAABAABDAAAAAAAAAAAAAAAAAAAAAAAAAAAAAAAAAA==

> <PUBCHEM_IUPAC_OPENEYE_NAME>
(2R)-2-hydroxybutanedioic acid

> <PUBCHEM_IUPAC_CAS_NAME>
(2R)-2-hydroxybutanedioic acid

> <PUBCHEM_IUPAC_NAME>
(2R)-2-hydroxybutanedioic acid

> <PUBCHEM_IUPAC_SYSTEMATIC_NAME>
(2R)-2-oxidanylbutanedioic acid

> <PUBCHEM_IUPAC_TRADITIONAL_NAME>
(2R)-2-hydroxysuccinic acid

> <PUBCHEM_IUPAC_INCHI>
InChI=1S/C4H6O5/c5-2(4(8)9)1-3(6)7/h2,5H,1H2,(H,6,7)(H,8,9)/t2-/m1/s1

> <PUBCHEM_IUPAC_INCHIKEY>
BJEPYKJPYRNKOW-UWTATZPHSA-N

> <PUBCHEM_XLOGP3>
-1.3

> <PUBCHEM_EXACT_MASS>
134.021523

> <PUBCHEM_MOLECULAR_FORMULA>
C4H6O5

> <PUBCHEM_MOLECULAR_WEIGHT>
134.08744

> <PUBCHEM_OPENEYE_CAN_SMILES>
C(C(C(=O)O)O)C(=O)O

> <PUBCHEM_OPENEYE_ISO_SMILES>
C([C@H](C(=O)O)O)C(=O)O

> <PUBCHEM_CACTVS_TPSA>
94.8

> <PUBCHEM_MONOISOTOPIC_WEIGHT>
134.021523

> <PUBCHEM_TOTAL_CHARGE>
0

> <PUBCHEM_HEAVY_ATOM_COUNT>
9

> <PUBCHEM_ATOM_DEF_STEREO_COUNT>
1

> <PUBCHEM_ATOM_UDEF_STEREO_COUNT>
0

> <PUBCHEM_BOND_DEF_STEREO_COUNT>
0

> <PUBCHEM_BOND_UDEF_STEREO_COUNT>
0

> <PUBCHEM_ISOTOPIC_ATOM_COUNT>
0

> <PUBCHEM_COMPONENT_COUNT>
1

> <PUBCHEM_CACTVS_TAUTO_COUNT>
2

> <PUBCHEM_COORDINATE_TYPE>
1
5
255

> <PUBCHEM_BONDANNOTATIONS>
6  1  6

$$$$
"L-Arginine_CID_6322"
  -OEChem-03271623162D

 26 25  0     1  0  0  0  0  0999 V2000
    6.8671    1.8100    0.0000 O   0  0  0  0  0  0  0  0  0  0  0  0
    6.0010    3.3100    0.0000 O   0  0  0  0  0  0  0  0  0  0  0  0
    4.2690    2.3100    0.0000 N   0  0  0  0  0  0  0  0  0  0  0  0
    3.4030   -1.1900    0.0000 N   0  0  0  0  0  0  0  0  0  0  0  0
    2.5369   -2.6900    0.0000 N   0  0  0  0  0  0  0  0  0  0  0  0
    4.2690   -2.6900    0.0000 N   0  0  0  0  0  0  0  0  0  0  0  0
    5.1350    0.8100    0.0000 C   0  0  0  0  0  0  0  0  0  0  0  0
    4.2690    0.3100    0.0000 C   0  0  0  0  0  0  0  0  0  0  0  0
    5.1350    1.8100    0.0000 C   0  0  1  0  0  0  0  0  0  0  0  0
    4.2690   -0.6900    0.0000 C   0  0  0  0  0  0  0  0  0  0  0  0
    6.0010    2.3100    0.0000 C   0  0  0  0  0  0  0  0  0  0  0  0
    3.4030   -2.1900    0.0000 C   0  0  0  0  0  0  0  0  0  0  0  0
    5.3471    0.2274    0.0000 H   0  0  0  0  0  0  0  0  0  0  0  0
    5.7456    0.9177    0.0000 H   0  0  0  0  0  0  0  0  0  0  0  0
    4.0569    0.8926    0.0000 H   0  0  0  0  0  0  0  0  0  0  0  0
    3.6584    0.2023    0.0000 H   0  0  0  0  0  0  0  0  0  0  0  0
    5.1350    2.4300    0.0000 H   0  0  0  0  0  0  0  0  0  0  0  0
    4.4810   -1.2726    0.0000 H   0  0  0  0  0  0  0  0  0  0  0  0
    4.8796   -0.5823    0.0000 H   0  0  0  0  0  0  0  0  0  0  0  0
    3.7320    2.0000    0.0000 H   0  0  0  0  0  0  0  0  0  0  0  0
    4.2690    2.9300    0.0000 H   0  0  0  0  0  0  0  0  0  0  0  0
    7.4040    2.1200    0.0000 H   0  0  0  0  0  0  0  0  0  0  0  0
    4.2690   -3.3100    0.0000 H   0  0  0  0  0  0  0  0  0  0  0  0
    4.8059   -2.3800    0.0000 H   0  0  0  0  0  0  0  0  0  0  0  0
    2.5369   -3.3100    0.0000 H   0  0  0  0  0  0  0  0  0  0  0  0
    2.0000   -2.3800    0.0000 H   0  0  0  0  0  0  0  0  0  0  0  0
  1 11  1  0  0  0  0
  1 22  1  0  0  0  0
  2 11  2  0  0  0  0
  9  3  1  6  0  0  0
  3 20  1  0  0  0  0
  3 21  1  0  0  0  0
  4 10  1  0  0  0  0
  4 12  2  0  0  0  0
  5 12  1  0  0  0  0
  5 25  1  0  0  0  0
  5 26  1  0  0  0  0
  6 12  1  0  0  0  0
  6 23  1  0  0  0  0
  6 24  1  0  0  0  0
  7  8  1  0  0  0  0
  7  9  1  0  0  0  0
  7 13  1  0  0  0  0
  7 14  1  0  0  0  0
  8 10  1  0  0  0  0
  8 15  1  0  0  0  0
  8 16  1  0  0  0  0
  9 11  1  0  0  0  0
  9 17  1  0  0  0  0
 10 18  1  0  0  0  0
 10 19  1  0  0  0  0
M  END
> <PUBCHEM_COMPOUND_CID>
6322

> <PUBCHEM_COMPOUND_CANONICALIZED>
1

> <PUBCHEM_CACTVS_COMPLEXITY>
176

> <PUBCHEM_CACTVS_HBOND_ACCEPTOR>
4

> <PUBCHEM_CACTVS_HBOND_DONOR>
4

> <PUBCHEM_CACTVS_ROTATABLE_BOND>
5

> <PUBCHEM_CACTVS_SUBSKEYS>
AAADccBjsAAAAAAAAAAAAAAAAAAAAAAAAAAAAAAAAAAAAAAAAAAAHgAQCAAACCjBgAQBCAJAAgAoAACQLAAAAAEAAAAAAIGAAAACABIAgAAAQAAEEAAAAACYEQAAAAAAAAAAAAAAAAAAAAAAAAAAAAAAAA==

> <PUBCHEM_IUPAC_OPENEYE_NAME>
(2S)-2-amino-5-guanidino-pentanoic acid

> <PUBCHEM_IUPAC_CAS_NAME>
(2S)-2-amino-5-(diaminomethylideneamino)pentanoic acid

> <PUBCHEM_IUPAC_NAME>
(2S)-2-amino-5-(diaminomethylideneamino)pentanoic acid

> <PUBCHEM_IUPAC_SYSTEMATIC_NAME>
(2S)-2-azanyl-5-[bis(azanyl)methylideneamino]pentanoic acid

> <PUBCHEM_IUPAC_TRADITIONAL_NAME>
(2S)-2-amino-5-guanidino-valeric acid

> <PUBCHEM_IUPAC_INCHI>
InChI=1S/C6H14N4O2/c7-4(5(11)12)2-1-3-10-6(8)9/h4H,1-3,7H2,(H,11,12)(H4,8,9,10)/t4-/m0/s1

> <PUBCHEM_IUPAC_INCHIKEY>
ODKSFYDXXFIFQN-BYPYZUCNSA-N

> <PUBCHEM_XLOGP3>
-4.2

> <PUBCHEM_EXACT_MASS>
174.111676

> <PUBCHEM_MOLECULAR_FORMULA>
C6H14N4O2

> <PUBCHEM_MOLECULAR_WEIGHT>
174.20096

> <PUBCHEM_OPENEYE_CAN_SMILES>
C(CC(C(=O)O)N)CN=C(N)N

> <PUBCHEM_OPENEYE_ISO_SMILES>
C(C[C@@H](C(=O)O)N)CN=C(N)N

> <PUBCHEM_CACTVS_TPSA>
128

> <PUBCHEM_MONOISOTOPIC_WEIGHT>
174.111676

> <PUBCHEM_TOTAL_CHARGE>
0

> <PUBCHEM_HEAVY_ATOM_COUNT>
12

> <PUBCHEM_ATOM_DEF_STEREO_COUNT>
1

> <PUBCHEM_ATOM_UDEF_STEREO_COUNT>
0

> <PUBCHEM_BOND_DEF_STEREO_COUNT>
0

> <PUBCHEM_BOND_UDEF_STEREO_COUNT>
0

> <PUBCHEM_ISOTOPIC_ATOM_COUNT>
0

> <PUBCHEM_COMPONENT_COUNT>
1

> <PUBCHEM_CACTVS_TAUTO_COUNT>
2

> <PUBCHEM_COORDINATE_TYPE>
1
5
255

> <PUBCHEM_BONDANNOTATIONS>
9  3  6

$$$$
"L-Asparagine_CID_6267"
  -OEChem-03271623182D

 17 16  0     1  0  0  0  0  0999 V2000
    6.8671   -0.0950    0.0000 O   0  0  0  0  0  0  0  0  0  0  0  0
    6.0010    1.4050    0.0000 O   0  0  0  0  0  0  0  0  0  0  0  0
    3.4030   -1.0950    0.0000 O   0  0  0  0  0  0  0  0  0  0  0  0
    5.1350   -1.0950    0.0000 N   0  0  0  0  0  0  0  0  0  0  0  0
    2.5369    0.4050    0.0000 N   0  0  0  0  0  0  0  0  0  0  0  0
    5.1350   -0.0950    0.0000 C   0  0  1  0  0  0  0  0  0  0  0  0
    4.2690    0.4050    0.0000 C   0  0  0  0  0  0  0  0  0  0  0  0
    6.0010    0.4050    0.0000 C   0  0  0  0  0  0  0  0  0  0  0  0
    3.4030   -0.0950    0.0000 C   0  0  0  0  0  0  0  0  0  0  0  0
    5.6720   -0.4050    0.0000 H   0  0  0  0  0  0  0  0  0  0  0  0
    4.6675    0.8799    0.0000 H   0  0  0  0  0  0  0  0  0  0  0  0
    3.8705    0.8799    0.0000 H   0  0  0  0  0  0  0  0  0  0  0  0
    4.5981   -1.4050    0.0000 H   0  0  0  0  0  0  0  0  0  0  0  0
    5.6720   -1.4050    0.0000 H   0  0  0  0  0  0  0  0  0  0  0  0
    2.0000    0.0950    0.0000 H   0  0  0  0  0  0  0  0  0  0  0  0
    2.5369    1.0250    0.0000 H   0  0  0  0  0  0  0  0  0  0  0  0
    7.4040    0.2150    0.0000 H   0  0  0  0  0  0  0  0  0  0  0  0
  1  8  1  0  0  0  0
  1 17  1  0  0  0  0
  2  8  2  0  0  0  0
  3  9  2  0  0  0  0
  6  4  1  1  0  0  0
  4 13  1  0  0  0  0
  4 14  1  0  0  0  0
  5  9  1  0  0  0  0
  5 15  1  0  0  0  0
  5 16  1  0  0  0  0
  6  7  1  0  0  0  0
  6  8  1  0  0  0  0
  6 10  1  0  0  0  0
  7  9  1  0  0  0  0
  7 11  1  0  0  0  0
  7 12  1  0  0  0  0
M  END
> <PUBCHEM_COMPOUND_CID>
6267

> <PUBCHEM_COMPOUND_CANONICALIZED>
1

> <PUBCHEM_CACTVS_COMPLEXITY>
134

> <PUBCHEM_CACTVS_HBOND_ACCEPTOR>
4

> <PUBCHEM_CACTVS_HBOND_DONOR>
3

> <PUBCHEM_CACTVS_ROTATABLE_BOND>
3

> <PUBCHEM_CACTVS_SUBSKEYS>
AAADccBjMAAAAAAAAAAAAAAAAAAAAAAAAAAAAAAAAAAAAAAAAAAAHgAQCAAACCjBgAQACABAAgAIAAGQGAAAAAAAAAAAAIGAAAACABgAwAAAQAAEEAAAAAAnAAAAAAAAAAAAAAAAAAAAAAAAAAAAAAAAAA==

> <PUBCHEM_IUPAC_OPENEYE_NAME>
(2S)-2,4-diamino-4-oxo-butanoic acid

> <PUBCHEM_IUPAC_CAS_NAME>
(2S)-2,4-diamino-4-oxobutanoic acid

> <PUBCHEM_IUPAC_NAME>
(2S)-2,4-diamino-4-oxobutanoic acid

> <PUBCHEM_IUPAC_SYSTEMATIC_NAME>
(2S)-2,4-bis(azanyl)-4-oxidanylidene-butanoic acid

> <PUBCHEM_IUPAC_TRADITIONAL_NAME>
(2S)-2,4-diamino-4-keto-butyric acid

> <PUBCHEM_IUPAC_INCHI>
InChI=1S/C4H8N2O3/c5-2(4(8)9)1-3(6)7/h2H,1,5H2,(H2,6,7)(H,8,9)/t2-/m0/s1

> <PUBCHEM_IUPAC_INCHIKEY>
DCXYFEDJOCDNAF-REOHCLBHSA-N

> <PUBCHEM_XLOGP3>
-3.4

> <PUBCHEM_EXACT_MASS>
132.053492

> <PUBCHEM_MOLECULAR_FORMULA>
C4H8N2O3

> <PUBCHEM_MOLECULAR_WEIGHT>
132.11792

> <PUBCHEM_OPENEYE_CAN_SMILES>
C(C(C(=O)O)N)C(=O)N

> <PUBCHEM_OPENEYE_ISO_SMILES>
C([C@@H](C(=O)O)N)C(=O)N

> <PUBCHEM_CACTVS_TPSA>
106

> <PUBCHEM_MONOISOTOPIC_WEIGHT>
132.053492

> <PUBCHEM_TOTAL_CHARGE>
0

> <PUBCHEM_HEAVY_ATOM_COUNT>
9

> <PUBCHEM_ATOM_DEF_STEREO_COUNT>
1

> <PUBCHEM_ATOM_UDEF_STEREO_COUNT>
0

> <PUBCHEM_BOND_DEF_STEREO_COUNT>
0

> <PUBCHEM_BOND_UDEF_STEREO_COUNT>
0

> <PUBCHEM_ISOTOPIC_ATOM_COUNT>
0

> <PUBCHEM_COMPONENT_COUNT>
1

> <PUBCHEM_CACTVS_TAUTO_COUNT>
3

> <PUBCHEM_COORDINATE_TYPE>
1
5
255

> <PUBCHEM_BONDANNOTATIONS>
6  4  5

$$$$
"L-Phenylalanine_CID_6140"
  -OEChem-03271623192D

 23 23  0     1  0  0  0  0  0999 V2000
    4.5981    2.1900    0.0000 O   0  0  0  0  0  0  0  0  0  0  0  0
    2.8660    2.1900    0.0000 O   0  0  0  0  0  0  0  0  0  0  0  0
    4.5981    0.1900    0.0000 N   0  0  0  0  0  0  0  0  0  0  0  0
    2.8660    0.1900    0.0000 C   0  0  0  0  0  0  0  0  0  0  0  0
    3.7320    0.6900    0.0000 C   0  0  1  0  0  0  0  0  0  0  0  0
    2.8660   -0.8100    0.0000 C   0  0  0  0  0  0  0  0  0  0  0  0
    3.7320   -1.3100    0.0000 C   0  0  0  0  0  0  0  0  0  0  0  0
    2.0000   -1.3100    0.0000 C   0  0  0  0  0  0  0  0  0  0  0  0
    3.7320    1.6900    0.0000 C   0  0  0  0  0  0  0  0  0  0  0  0
    3.7320   -2.3100    0.0000 C   0  0  0  0  0  0  0  0  0  0  0  0
    2.0000   -2.3100    0.0000 C   0  0  0  0  0  0  0  0  0  0  0  0
    2.8660   -2.8100    0.0000 C   0  0  0  0  0  0  0  0  0  0  0  0
    2.6540    0.7726    0.0000 H   0  0  0  0  0  0  0  0  0  0  0  0
    2.2554    0.0823    0.0000 H   0  0  0  0  0  0  0  0  0  0  0  0
    3.7320    0.0700    0.0000 H   0  0  0  0  0  0  0  0  0  0  0  0
    4.2690   -1.0000    0.0000 H   0  0  0  0  0  0  0  0  0  0  0  0
    1.4631   -1.0000    0.0000 H   0  0  0  0  0  0  0  0  0  0  0  0
    5.1350    0.5000    0.0000 H   0  0  0  0  0  0  0  0  0  0  0  0
    4.5981   -0.4300    0.0000 H   0  0  0  0  0  0  0  0  0  0  0  0
    4.2690   -2.6200    0.0000 H   0  0  0  0  0  0  0  0  0  0  0  0
    1.4631   -2.6200    0.0000 H   0  0  0  0  0  0  0  0  0  0  0  0
    2.8660   -3.4300    0.0000 H   0  0  0  0  0  0  0  0  0  0  0  0
    4.5981    2.8100    0.0000 H   0  0  0  0  0  0  0  0  0  0  0  0
  1  9  1  0  0  0  0
  1 23  1  0  0  0  0
  2  9  2  0  0  0  0
  5  3  1  1  0  0  0
  3 18  1  0  0  0  0
  3 19  1  0  0  0  0
  4  5  1  0  0  0  0
  4  6  1  0  0  0  0
  4 13  1  0  0  0  0
  4 14  1  0  0  0  0
  5  9  1  0  0  0  0
  5 15  1  0  0  0  0
  6  7  2  0  0  0  0
  6  8  1  0  0  0  0
  7 10  1  0  0  0  0
  7 16  1  0  0  0  0
  8 11  2  0  0  0  0
  8 17  1  0  0  0  0
 10 12  2  0  0  0  0
 10 20  1  0  0  0  0
 11 12  1  0  0  0  0
 11 21  1  0  0  0  0
 12 22  1  0  0  0  0
M  END
> <PUBCHEM_COMPOUND_CID>
6140

> <PUBCHEM_COMPOUND_CANONICALIZED>
1

> <PUBCHEM_CACTVS_COMPLEXITY>
153

> <PUBCHEM_CACTVS_HBOND_ACCEPTOR>
3

> <PUBCHEM_CACTVS_HBOND_DONOR>
2

> <PUBCHEM_CACTVS_ROTATABLE_BOND>
3

> <PUBCHEM_CACTVS_SUBSKEYS>
AAADccByMAAAAAAAAAAAAAAAAAAAAAAAAAAwAAAAAAAAAAABAAAAHgAQCAAADCjBmAQwCIBAAgCIAiDSCAACAAAgAAAIiIGAAIgKIDKAkRGAYAAkkAAIiAeYyKCOAAAAAAAAAAAAAAAAAAAAAAAAAAAAAA==

> <PUBCHEM_IUPAC_OPENEYE_NAME>
(2S)-2-amino-3-phenyl-propanoic acid

> <PUBCHEM_IUPAC_CAS_NAME>
(2S)-2-amino-3-phenylpropanoic acid

> <PUBCHEM_IUPAC_NAME>
(2S)-2-amino-3-phenylpropanoic acid

> <PUBCHEM_IUPAC_SYSTEMATIC_NAME>
(2S)-2-azanyl-3-phenyl-propanoic acid

> <PUBCHEM_IUPAC_TRADITIONAL_NAME>
(2S)-2-amino-3-phenyl-propionic acid

> <PUBCHEM_IUPAC_INCHI>
InChI=1S/C9H11NO2/c10-8(9(11)12)6-7-4-2-1-3-5-7/h1-5,8H,6,10H2,(H,11,12)/t8-/m0/s1

> <PUBCHEM_IUPAC_INCHIKEY>
COLNVLDHVKWLRT-QMMMGPOBSA-N

> <PUBCHEM_XLOGP3>
-1.5

> <PUBCHEM_EXACT_MASS>
165.078979

> <PUBCHEM_MOLECULAR_FORMULA>
C9H11NO2

> <PUBCHEM_MOLECULAR_WEIGHT>
165.18914

> <PUBCHEM_OPENEYE_CAN_SMILES>
C1=CC=C(C=C1)CC(C(=O)O)N

> <PUBCHEM_OPENEYE_ISO_SMILES>
C1=CC=C(C=C1)C[C@@H](C(=O)O)N

> <PUBCHEM_CACTVS_TPSA>
63.3

> <PUBCHEM_MONOISOTOPIC_WEIGHT>
165.078979

> <PUBCHEM_TOTAL_CHARGE>
0

> <PUBCHEM_HEAVY_ATOM_COUNT>
12

> <PUBCHEM_ATOM_DEF_STEREO_COUNT>
1

> <PUBCHEM_ATOM_UDEF_STEREO_COUNT>
0

> <PUBCHEM_BOND_DEF_STEREO_COUNT>
0

> <PUBCHEM_BOND_UDEF_STEREO_COUNT>
0

> <PUBCHEM_ISOTOPIC_ATOM_COUNT>
0

> <PUBCHEM_COMPONENT_COUNT>
1

> <PUBCHEM_CACTVS_TAUTO_COUNT>
2

> <PUBCHEM_COORDINATE_TYPE>
1
5
255

> <PUBCHEM_BONDANNOTATIONS>
10  12  8
11  12  8
5  3  5
6  7  8
6  8  8
7  10  8
8  11  8

$$$$
"L-Serine_CID_5951"
  -OEChem-03271623192D

 14 13  0     1  0  0  0  0  0999 V2000
    2.5369   -1.1900    0.0000 O   0  0  0  0  0  0  0  0  0  0  0  0
    5.1350    0.3100    0.0000 O   0  0  0  0  0  0  0  0  0  0  0  0
    4.2690    1.8100    0.0000 O   0  0  0  0  0  0  0  0  0  0  0  0
    2.5369    0.8100    0.0000 N   0  0  0  0  0  0  0  0  0  0  0  0
    3.4030    0.3100    0.0000 C   0  0  1  0  0  0  0  0  0  0  0  0
    3.4030   -0.6900    0.0000 C   0  0  0  0  0  0  0  0  0  0  0  0
    4.2690    0.8100    0.0000 C   0  0  0  0  0  0  0  0  0  0  0  0
    3.4030    0.9300    0.0000 H   0  0  0  0  0  0  0  0  0  0  0  0
    3.6150   -1.2726    0.0000 H   0  0  0  0  0  0  0  0  0  0  0  0
    4.0135   -0.5823    0.0000 H   0  0  0  0  0  0  0  0  0  0  0  0
    2.0000    0.5000    0.0000 H   0  0  0  0  0  0  0  0  0  0  0  0
    2.5369    1.4300    0.0000 H   0  0  0  0  0  0  0  0  0  0  0  0
    2.5369   -1.8100    0.0000 H   0  0  0  0  0  0  0  0  0  0  0  0
    5.6720    0.6200    0.0000 H   0  0  0  0  0  0  0  0  0  0  0  0
  1  6  1  0  0  0  0
  1 13  1  0  0  0  0
  2  7  1  0  0  0  0
  2 14  1  0  0  0  0
  3  7  2  0  0  0  0
  5  4  1  6  0  0  0
  4 11  1  0  0  0  0
  4 12  1  0  0  0  0
  5  6  1  0  0  0  0
  5  7  1  0  0  0  0
  5  8  1  0  0  0  0
  6  9  1  0  0  0  0
  6 10  1  0  0  0  0
M  END
> <PUBCHEM_COMPOUND_CID>
5951

> <PUBCHEM_COMPOUND_CANONICALIZED>
1

> <PUBCHEM_CACTVS_COMPLEXITY>
72.6

> <PUBCHEM_CACTVS_HBOND_ACCEPTOR>
4

> <PUBCHEM_CACTVS_HBOND_DONOR>
3

> <PUBCHEM_CACTVS_ROTATABLE_BOND>
2

> <PUBCHEM_CACTVS_SUBSKEYS>
AAADcYBCMAAAAAAAAAAAAAAAAAAAAAAAAAAAAAAAAAAAAAAAAAAAHgAQCAAACCjhgAYACABAAgAIAACQCAAAAAAAAAAAAIGAAAACEAQAAAAAQAABMAAAAAAAAAAAAAAAAAAAAAAAAAAAAAAAAAAAAAAAAA==

> <PUBCHEM_IUPAC_OPENEYE_NAME>
(2S)-2-amino-3-hydroxy-propanoic acid

> <PUBCHEM_IUPAC_CAS_NAME>
(2S)-2-amino-3-hydroxypropanoic acid

> <PUBCHEM_IUPAC_NAME>
(2S)-2-amino-3-hydroxypropanoic acid

> <PUBCHEM_IUPAC_SYSTEMATIC_NAME>
(2S)-2-azanyl-3-oxidanyl-propanoic acid

> <PUBCHEM_IUPAC_TRADITIONAL_NAME>
(2S)-2-amino-3-hydroxy-propionic acid

> <PUBCHEM_IUPAC_INCHI>
InChI=1S/C3H7NO3/c4-2(1-5)3(6)7/h2,5H,1,4H2,(H,6,7)/t2-/m0/s1

> <PUBCHEM_IUPAC_INCHIKEY>
MTCFGRXMJLQNBG-REOHCLBHSA-N

> <PUBCHEM_XLOGP3>
-3.1

> <PUBCHEM_EXACT_MASS>
105.042593

> <PUBCHEM_MOLECULAR_FORMULA>
C3H7NO3

> <PUBCHEM_MOLECULAR_WEIGHT>
105.09258

> <PUBCHEM_OPENEYE_CAN_SMILES>
C(C(C(=O)O)N)O

> <PUBCHEM_OPENEYE_ISO_SMILES>
C([C@@H](C(=O)O)N)O

> <PUBCHEM_CACTVS_TPSA>
83.6

> <PUBCHEM_MONOISOTOPIC_WEIGHT>
105.042593

> <PUBCHEM_TOTAL_CHARGE>
0

> <PUBCHEM_HEAVY_ATOM_COUNT>
7

> <PUBCHEM_ATOM_DEF_STEREO_COUNT>
1

> <PUBCHEM_ATOM_UDEF_STEREO_COUNT>
0

> <PUBCHEM_BOND_DEF_STEREO_COUNT>
0

> <PUBCHEM_BOND_UDEF_STEREO_COUNT>
0

> <PUBCHEM_ISOTOPIC_ATOM_COUNT>
0

> <PUBCHEM_COMPONENT_COUNT>
1

> <PUBCHEM_CACTVS_TAUTO_COUNT>
1

> <PUBCHEM_COORDINATE_TYPE>
1
5
255

> <PUBCHEM_BONDANNOTATIONS>
5  4  6

$$$$
"L-Threonine_CID_6288"
  -OEChem-03271623202D

 17 16  0     1  0  0  0  0  0999 V2000
    6.0010   -0.0950    0.0000 O   0  0  0  0  0  0  0  0  0  0  0  0
    2.5369   -0.0950    0.0000 O   0  0  0  0  0  0  0  0  0  0  0  0
    3.4030    1.4050    0.0000 O   0  0  0  0  0  0  0  0  0  0  0  0
    4.2690   -1.0950    0.0000 N   0  0  0  0  0  0  0  0  0  0  0  0
    5.1350    0.4050    0.0000 C   0  0  1  0  0  0  0  0  0  0  0  0
    4.2690   -0.0950    0.0000 C   0  0  1  0  0  0  0  0  0  0  0  0
    5.1350    1.4050    0.0000 C   0  0  0  0  0  0  0  0  0  0  0  0
    3.4030    0.4050    0.0000 C   0  0  0  0  0  0  0  0  0  0  0  0
    3.7320   -0.4050    0.0000 H   0  0  0  0  0  0  0  0  0  0  0  0
    5.1350   -0.2150    0.0000 H   0  0  0  0  0  0  0  0  0  0  0  0
    5.7550    1.4050    0.0000 H   0  0  0  0  0  0  0  0  0  0  0  0
    5.1350    2.0250    0.0000 H   0  0  0  0  0  0  0  0  0  0  0  0
    4.5150    1.4050    0.0000 H   0  0  0  0  0  0  0  0  0  0  0  0
    3.7320   -1.4050    0.0000 H   0  0  0  0  0  0  0  0  0  0  0  0
    4.8059   -1.4050    0.0000 H   0  0  0  0  0  0  0  0  0  0  0  0
    6.5380    0.2150    0.0000 H   0  0  0  0  0  0  0  0  0  0  0  0
    2.0000    0.2150    0.0000 H   0  0  0  0  0  0  0  0  0  0  0  0
  5  1  1  1  0  0  0
  1 16  1  0  0  0  0
  2  8  1  0  0  0  0
  2 17  1  0  0  0  0
  3  8  2  0  0  0  0
  6  4  1  6  0  0  0
  4 14  1  0  0  0  0
  4 15  1  0  0  0  0
  5  6  1  0  0  0  0
  5  7  1  0  0  0  0
  5 10  1  0  0  0  0
  6  8  1  0  0  0  0
  6  9  1  0  0  0  0
  7 11  1  0  0  0  0
  7 12  1  0  0  0  0
  7 13  1  0  0  0  0
M  END
> <PUBCHEM_COMPOUND_CID>
6288

> <PUBCHEM_COMPOUND_CANONICALIZED>
1

> <PUBCHEM_CACTVS_COMPLEXITY>
93.3

> <PUBCHEM_CACTVS_HBOND_ACCEPTOR>
4

> <PUBCHEM_CACTVS_HBOND_DONOR>
3

> <PUBCHEM_CACTVS_ROTATABLE_BOND>
2

> <PUBCHEM_CACTVS_SUBSKEYS>
AAADccBiMAAAAAAAAAAAAAAAAAAAAAAAAAAAAAAAAAAAAAAAAAAAHgAQCAAACDzhgAYCCABAAgAIAACQCAAAAAAAAAAAAIGAAAACEBQAAAAAQAAFMAAAAAAAAAAAAAAAAAAAAAAAAAAAAAAAAAAAAAAAAA==

> <PUBCHEM_IUPAC_OPENEYE_NAME>
(2S,3R)-2-amino-3-hydroxy-butanoic acid

> <PUBCHEM_IUPAC_CAS_NAME>
(2S,3R)-2-amino-3-hydroxybutanoic acid

> <PUBCHEM_IUPAC_NAME>
(2S,3R)-2-amino-3-hydroxybutanoic acid

> <PUBCHEM_IUPAC_SYSTEMATIC_NAME>
(2S,3R)-2-azanyl-3-oxidanyl-butanoic acid

> <PUBCHEM_IUPAC_TRADITIONAL_NAME>
(2S,3R)-2-amino-3-hydroxy-butyric acid

> <PUBCHEM_IUPAC_INCHI>
InChI=1S/C4H9NO3/c1-2(6)3(5)4(7)8/h2-3,6H,5H2,1H3,(H,7,8)/t2-,3+/m1/s1

> <PUBCHEM_IUPAC_INCHIKEY>
AYFVYJQAPQTCCC-GBXIJSLDSA-N

> <PUBCHEM_XLOGP3>
-2.9

> <PUBCHEM_EXACT_MASS>
119.058243

> <PUBCHEM_MOLECULAR_FORMULA>
C4H9NO3

> <PUBCHEM_MOLECULAR_WEIGHT>
119.11916

> <PUBCHEM_OPENEYE_CAN_SMILES>
CC(C(C(=O)O)N)O

> <PUBCHEM_OPENEYE_ISO_SMILES>
C[C@H]([C@@H](C(=O)O)N)O

> <PUBCHEM_CACTVS_TPSA>
83.6

> <PUBCHEM_MONOISOTOPIC_WEIGHT>
119.058243

> <PUBCHEM_TOTAL_CHARGE>
0

> <PUBCHEM_HEAVY_ATOM_COUNT>
8

> <PUBCHEM_ATOM_DEF_STEREO_COUNT>
2

> <PUBCHEM_ATOM_UDEF_STEREO_COUNT>
0

> <PUBCHEM_BOND_DEF_STEREO_COUNT>
0

> <PUBCHEM_BOND_UDEF_STEREO_COUNT>
0

> <PUBCHEM_ISOTOPIC_ATOM_COUNT>
0

> <PUBCHEM_COMPONENT_COUNT>
1

> <PUBCHEM_CACTVS_TAUTO_COUNT>
1

> <PUBCHEM_COORDINATE_TYPE>
1
5
255

> <PUBCHEM_BONDANNOTATIONS>
5  1  5
6  4  6

$$$$
"Glycyl-L-Glutamic_Acid_CID_99278"
  -OEChem-03271623212D

 26 25  0     1  0  0  0  0  0999 V2000
    2.5369    1.0600    0.0000 O   0  0  0  0  0  0  0  0  0  0  0  0
    3.4030    2.5600    0.0000 O   0  0  0  0  0  0  0  0  0  0  0  0
    2.5369   -1.9400    0.0000 O   0  0  0  0  0  0  0  0  0  0  0  0
    6.0010    0.0600    0.0000 O   0  0  0  0  0  0  0  0  0  0  0  0
    4.2690   -1.9400    0.0000 O   0  0  0  0  0  0  0  0  0  0  0  0
    5.1350    1.5600    0.0000 N   0  0  0  0  0  0  0  0  0  0  0  0
    7.7331    1.0600    0.0000 N   0  0  0  0  0  0  0  0  0  0  0  0
    4.2690    1.0600    0.0000 C   0  0  1  0  0  0  0  0  0  0  0  0
    4.2690    0.0600    0.0000 C   0  0  0  0  0  0  0  0  0  0  0  0
    3.4030   -0.4400    0.0000 C   0  0  0  0  0  0  0  0  0  0  0  0
    3.4030    1.5600    0.0000 C   0  0  0  0  0  0  0  0  0  0  0  0
    6.0010    1.0600    0.0000 C   0  0  0  0  0  0  0  0  0  0  0  0
    3.4030   -1.4400    0.0000 C   0  0  0  0  0  0  0  0  0  0  0  0
    6.8671    1.5600    0.0000 C   0  0  0  0  0  0  0  0  0  0  0  0
    4.2690    1.6800    0.0000 H   0  0  0  0  0  0  0  0  0  0  0  0
    4.4810   -0.5226    0.0000 H   0  0  0  0  0  0  0  0  0  0  0  0
    4.8796    0.1677    0.0000 H   0  0  0  0  0  0  0  0  0  0  0  0
    3.1909    0.1426    0.0000 H   0  0  0  0  0  0  0  0  0  0  0  0
    2.7924   -0.5477    0.0000 H   0  0  0  0  0  0  0  0  0  0  0  0
    5.1350    2.1800    0.0000 H   0  0  0  0  0  0  0  0  0  0  0  0
    7.2656    2.0349    0.0000 H   0  0  0  0  0  0  0  0  0  0  0  0
    6.4685    2.0349    0.0000 H   0  0  0  0  0  0  0  0  0  0  0  0
    2.0000    1.3700    0.0000 H   0  0  0  0  0  0  0  0  0  0  0  0
    8.2700    1.3700    0.0000 H   0  0  0  0  0  0  0  0  0  0  0  0
    7.7331    0.4400    0.0000 H   0  0  0  0  0  0  0  0  0  0  0  0
    2.5369   -2.5600    0.0000 H   0  0  0  0  0  0  0  0  0  0  0  0
  1 11  1  0  0  0  0
  1 23  1  0  0  0  0
  2 11  2  0  0  0  0
  3 13  1  0  0  0  0
  3 26  1  0  0  0  0
  4 12  2  0  0  0  0
  5 13  2  0  0  0  0
  8  6  1  1  0  0  0
  6 12  1  0  0  0  0
  6 20  1  0  0  0  0
  7 14  1  0  0  0  0
  7 24  1  0  0  0  0
  7 25  1  0  0  0  0
  8  9  1  0  0  0  0
  8 11  1  0  0  0  0
  8 15  1  0  0  0  0
  9 10  1  0  0  0  0
  9 16  1  0  0  0  0
  9 17  1  0  0  0  0
 10 13  1  0  0  0  0
 10 18  1  0  0  0  0
 10 19  1  0  0  0  0
 12 14  1  0  0  0  0
 14 21  1  0  0  0  0
 14 22  1  0  0  0  0
M  END
> <PUBCHEM_COMPOUND_CID>
99278

> <PUBCHEM_COMPOUND_CANONICALIZED>
1

> <PUBCHEM_CACTVS_COMPLEXITY>
240

> <PUBCHEM_CACTVS_HBOND_ACCEPTOR>
6

> <PUBCHEM_CACTVS_HBOND_DONOR>
4

> <PUBCHEM_CACTVS_ROTATABLE_BOND>
6

> <PUBCHEM_CACTVS_SUBSKEYS>
AAADccBjOAAAAAAAAAAAAAAAAAAAAAAAAAAAAAAAAAAAAAAAAAAAHgAQCAAACCjBgAQACALAAgAIAAGQGAAAAAAAAAAAAIGIAAACQBIAgCAUQAAEFgCQAACsJgAAAAAAAAAAAAAAAAAAAAAAAAAAAAAAAA==

> <PUBCHEM_IUPAC_OPENEYE_NAME>
(2S)-2-[(2-aminoacetyl)amino]pentanedioic acid

> <PUBCHEM_IUPAC_CAS_NAME>
(2S)-2-[(2-amino-1-oxoethyl)amino]pentanedioic acid

> <PUBCHEM_IUPAC_NAME>
(2S)-2-[(2-aminoacetyl)amino]pentanedioic acid

> <PUBCHEM_IUPAC_SYSTEMATIC_NAME>
(2S)-2-(2-azanylethanoylamino)pentanedioic acid

> <PUBCHEM_IUPAC_TRADITIONAL_NAME>
(2S)-2-(glycylamino)glutaric acid

> <PUBCHEM_IUPAC_INCHI>
InChI=1S/C7H12N2O5/c8-3-5(10)9-4(7(13)14)1-2-6(11)12/h4H,1-3,8H2,(H,9,10)(H,11,12)(H,13,14)/t4-/m0/s1

> <PUBCHEM_IUPAC_INCHIKEY>
IEFJWDNGDZAYNZ-BYPYZUCNSA-N

> <PUBCHEM_XLOGP3>
-5

> <PUBCHEM_EXACT_MASS>
204.074621

> <PUBCHEM_MOLECULAR_FORMULA>
C7H12N2O5

> <PUBCHEM_MOLECULAR_WEIGHT>
204.18058

> <PUBCHEM_OPENEYE_CAN_SMILES>
C(CC(=O)O)C(C(=O)O)NC(=O)CN

> <PUBCHEM_OPENEYE_ISO_SMILES>
C(CC(=O)O)[C@@H](C(=O)O)NC(=O)CN

> <PUBCHEM_CACTVS_TPSA>
130

> <PUBCHEM_MONOISOTOPIC_WEIGHT>
204.074621

> <PUBCHEM_TOTAL_CHARGE>
0

> <PUBCHEM_HEAVY_ATOM_COUNT>
14

> <PUBCHEM_ATOM_DEF_STEREO_COUNT>
1

> <PUBCHEM_ATOM_UDEF_STEREO_COUNT>
0

> <PUBCHEM_BOND_DEF_STEREO_COUNT>
0

> <PUBCHEM_BOND_UDEF_STEREO_COUNT>
0

> <PUBCHEM_ISOTOPIC_ATOM_COUNT>
0

> <PUBCHEM_COMPONENT_COUNT>
1

> <PUBCHEM_CACTVS_TAUTO_COUNT>
2

> <PUBCHEM_COORDINATE_TYPE>
1
5
255

> <PUBCHEM_BONDANNOTATIONS>
8  6  5

$$$$
"Phenylethyl-amine_CID_1001"
  -OEChem-03271623222D

 20 20  0     0  0  0  0  0  0999 V2000
    3.7320    2.0950    0.0000 N   0  0  0  0  0  0  0  0  0  0  0  0
    2.8660    0.5950    0.0000 C   0  0  0  0  0  0  0  0  0  0  0  0
    2.8660   -0.4050    0.0000 C   0  0  0  0  0  0  0  0  0  0  0  0
    3.7320    1.0950    0.0000 C   0  0  0  0  0  0  0  0  0  0  0  0
    3.7320   -0.9050    0.0000 C   0  0  0  0  0  0  0  0  0  0  0  0
    2.0000   -0.9050    0.0000 C   0  0  0  0  0  0  0  0  0  0  0  0
    3.7320   -1.9050    0.0000 C   0  0  0  0  0  0  0  0  0  0  0  0
    2.0000   -1.9050    0.0000 C   0  0  0  0  0  0  0  0  0  0  0  0
    2.8660   -2.4050    0.0000 C   0  0  0  0  0  0  0  0  0  0  0  0
    2.6540    1.1776    0.0000 H   0  0  0  0  0  0  0  0  0  0  0  0
    2.2554    0.4873    0.0000 H   0  0  0  0  0  0  0  0  0  0  0  0
    3.9441    0.5124    0.0000 H   0  0  0  0  0  0  0  0  0  0  0  0
    4.3426    1.2027    0.0000 H   0  0  0  0  0  0  0  0  0  0  0  0
    4.2690   -0.5950    0.0000 H   0  0  0  0  0  0  0  0  0  0  0  0
    1.4631   -0.5950    0.0000 H   0  0  0  0  0  0  0  0  0  0  0  0
    4.2690   -2.2150    0.0000 H   0  0  0  0  0  0  0  0  0  0  0  0
    1.4631   -2.2150    0.0000 H   0  0  0  0  0  0  0  0  0  0  0  0
    2.8660   -3.0250    0.0000 H   0  0  0  0  0  0  0  0  0  0  0  0
    4.2690    2.4050    0.0000 H   0  0  0  0  0  0  0  0  0  0  0  0
    3.1951    2.4050    0.0000 H   0  0  0  0  0  0  0  0  0  0  0  0
  1  4  1  0  0  0  0
  1 19  1  0  0  0  0
  1 20  1  0  0  0  0
  2  3  1  0  0  0  0
  2  4  1  0  0  0  0
  2 10  1  0  0  0  0
  2 11  1  0  0  0  0
  3  5  2  0  0  0  0
  3  6  1  0  0  0  0
  4 12  1  0  0  0  0
  4 13  1  0  0  0  0
  5  7  1  0  0  0  0
  5 14  1  0  0  0  0
  6  8  2  0  0  0  0
  6 15  1  0  0  0  0
  7  9  2  0  0  0  0
  7 16  1  0  0  0  0
  8  9  1  0  0  0  0
  8 17  1  0  0  0  0
  9 18  1  0  0  0  0
M  END
> <PUBCHEM_COMPOUND_CID>
1001

> <PUBCHEM_COMPOUND_CANONICALIZED>
1

> <PUBCHEM_CACTVS_COMPLEXITY>
65

> <PUBCHEM_CACTVS_HBOND_ACCEPTOR>
1

> <PUBCHEM_CACTVS_HBOND_DONOR>
1

> <PUBCHEM_CACTVS_ROTATABLE_BOND>
2

> <PUBCHEM_CACTVS_SUBSKEYS>
AAADccByAAAAAAAAAAAAAAAAAAAAAAAAAAAwAAAAAAAAAAABAAAAHAAQAAAADADBGAQwAIBAAACAAiBCAAACAAAgAAAIiIAAAIgIICKAkRGAIAAgkAAIiAcQgIAOAAAAAAAAAAAAAAAAAAAAAAAAAAAAAA==

> <PUBCHEM_IUPAC_OPENEYE_NAME>
2-phenylethanamine

> <PUBCHEM_IUPAC_CAS_NAME>
2-phenylethanamine

> <PUBCHEM_IUPAC_NAME>
2-phenylethanamine

> <PUBCHEM_IUPAC_SYSTEMATIC_NAME>
2-phenylethanamine

> <PUBCHEM_IUPAC_TRADITIONAL_NAME>
phenethylamine

> <PUBCHEM_IUPAC_INCHI>
InChI=1S/C8H11N/c9-7-6-8-4-2-1-3-5-8/h1-5H,6-7,9H2

> <PUBCHEM_IUPAC_INCHIKEY>
BHHGXPLMPWCGHP-UHFFFAOYSA-N

> <PUBCHEM_XLOGP3>
1.4

> <PUBCHEM_EXACT_MASS>
121.089149

> <PUBCHEM_MOLECULAR_FORMULA>
C8H11N

> <PUBCHEM_MOLECULAR_WEIGHT>
121.17964

> <PUBCHEM_OPENEYE_CAN_SMILES>
C1=CC=C(C=C1)CCN

> <PUBCHEM_OPENEYE_ISO_SMILES>
C1=CC=C(C=C1)CCN

> <PUBCHEM_CACTVS_TPSA>
26

> <PUBCHEM_MONOISOTOPIC_WEIGHT>
121.089149

> <PUBCHEM_TOTAL_CHARGE>
0

> <PUBCHEM_HEAVY_ATOM_COUNT>
9

> <PUBCHEM_ATOM_DEF_STEREO_COUNT>
0

> <PUBCHEM_ATOM_UDEF_STEREO_COUNT>
0

> <PUBCHEM_BOND_DEF_STEREO_COUNT>
0

> <PUBCHEM_BOND_UDEF_STEREO_COUNT>
0

> <PUBCHEM_ISOTOPIC_ATOM_COUNT>
0

> <PUBCHEM_COMPONENT_COUNT>
1

> <PUBCHEM_CACTVS_TAUTO_COUNT>
2

> <PUBCHEM_COORDINATE_TYPE>
1
5
255

> <PUBCHEM_BONDANNOTATIONS>
3  5  8
3  6  8
5  7  8
6  8  8
7  9  8
8  9  8

$$$$
"Putrescine_CID_1045"
  -OEChem-03271623222D

 18 17  0     0  0  0  0  0  0999 V2000
    6.8671    0.2500    0.0000 N   0  0  0  0  0  0  0  0  0  0  0  0
    2.5369   -0.2500    0.0000 N   0  0  0  0  0  0  0  0  0  0  0  0
    4.2690   -0.2500    0.0000 C   0  0  0  0  0  0  0  0  0  0  0  0
    5.1350    0.2500    0.0000 C   0  0  0  0  0  0  0  0  0  0  0  0
    6.0010   -0.2500    0.0000 C   0  0  0  0  0  0  0  0  0  0  0  0
    3.4030    0.2500    0.0000 C   0  0  0  0  0  0  0  0  0  0  0  0
    3.8705   -0.7249    0.0000 H   0  0  0  0  0  0  0  0  0  0  0  0
    4.6675   -0.7249    0.0000 H   0  0  0  0  0  0  0  0  0  0  0  0
    5.5335    0.7249    0.0000 H   0  0  0  0  0  0  0  0  0  0  0  0
    4.7365    0.7249    0.0000 H   0  0  0  0  0  0  0  0  0  0  0  0
    5.6025   -0.7249    0.0000 H   0  0  0  0  0  0  0  0  0  0  0  0
    6.3996   -0.7249    0.0000 H   0  0  0  0  0  0  0  0  0  0  0  0
    3.8015    0.7249    0.0000 H   0  0  0  0  0  0  0  0  0  0  0  0
    3.0044    0.7249    0.0000 H   0  0  0  0  0  0  0  0  0  0  0  0
    7.4040   -0.0600    0.0000 H   0  0  0  0  0  0  0  0  0  0  0  0
    6.8671    0.8700    0.0000 H   0  0  0  0  0  0  0  0  0  0  0  0
    2.0000    0.0600    0.0000 H   0  0  0  0  0  0  0  0  0  0  0  0
    2.5369   -0.8700    0.0000 H   0  0  0  0  0  0  0  0  0  0  0  0
  1  5  1  0  0  0  0
  1 15  1  0  0  0  0
  1 16  1  0  0  0  0
  2  6  1  0  0  0  0
  2 17  1  0  0  0  0
  2 18  1  0  0  0  0
  3  4  1  0  0  0  0
  3  6  1  0  0  0  0
  3  7  1  0  0  0  0
  3  8  1  0  0  0  0
  4  5  1  0  0  0  0
  4  9  1  0  0  0  0
  4 10  1  0  0  0  0
  5 11  1  0  0  0  0
  5 12  1  0  0  0  0
  6 13  1  0  0  0  0
  6 14  1  0  0  0  0
M  END
> <PUBCHEM_COMPOUND_CID>
1045

> <PUBCHEM_COMPOUND_CANONICALIZED>
1

> <PUBCHEM_CACTVS_COMPLEXITY>
17.5

> <PUBCHEM_CACTVS_HBOND_ACCEPTOR>
2

> <PUBCHEM_CACTVS_HBOND_DONOR>
2

> <PUBCHEM_CACTVS_ROTATABLE_BOND>
3

> <PUBCHEM_CACTVS_SUBSKEYS>
AAADccBjAAAAAAAAAAAAAAAAAAAAAAAAAAAAAAAAAAAAAAAAAAAAHAAQAAAACADBAAQAAABAAAAAAAAAAAAAAAAAAAAAAIAAAAAAAAAAgAAAAAAAEAAAAAAAAAAAAAAAAAAAAAAAAAAAAAAAAAAAAAAAAA==

> <PUBCHEM_IUPAC_OPENEYE_NAME>
butane-1,4-diamine

> <PUBCHEM_IUPAC_CAS_NAME>
butane-1,4-diamine

> <PUBCHEM_IUPAC_NAME>
butane-1,4-diamine

> <PUBCHEM_IUPAC_SYSTEMATIC_NAME>
butane-1,4-diamine

> <PUBCHEM_IUPAC_TRADITIONAL_NAME>
4-aminobutylamine

> <PUBCHEM_IUPAC_INCHI>
InChI=1S/C4H12N2/c5-3-1-2-4-6/h1-6H2

> <PUBCHEM_IUPAC_INCHIKEY>
KIDHWZJUCRJVML-UHFFFAOYSA-N

> <PUBCHEM_XLOGP3_AA>
-0.9

> <PUBCHEM_EXACT_MASS>
88.100048

> <PUBCHEM_MOLECULAR_FORMULA>
C4H12N2

> <PUBCHEM_MOLECULAR_WEIGHT>
88.15148

> <PUBCHEM_OPENEYE_CAN_SMILES>
C(CCN)CN

> <PUBCHEM_OPENEYE_ISO_SMILES>
C(CCN)CN

> <PUBCHEM_CACTVS_TPSA>
52

> <PUBCHEM_MONOISOTOPIC_WEIGHT>
88.100048

> <PUBCHEM_TOTAL_CHARGE>
0

> <PUBCHEM_HEAVY_ATOM_COUNT>
6

> <PUBCHEM_ATOM_DEF_STEREO_COUNT>
0

> <PUBCHEM_ATOM_UDEF_STEREO_COUNT>
0

> <PUBCHEM_BOND_DEF_STEREO_COUNT>
0

> <PUBCHEM_BOND_UDEF_STEREO_COUNT>
0

> <PUBCHEM_ISOTOPIC_ATOM_COUNT>
0

> <PUBCHEM_COMPONENT_COUNT>
1

> <PUBCHEM_CACTVS_TAUTO_COUNT>
1

> <PUBCHEM_COORDINATE_TYPE>
1
5
255

$$$$
